<?xml version="1.0" encoding="UTF-8"?>

<!-- generated on Mon Feb  1 20:05:12 2016 by SUMO netconvert Version dev-SVN-r19089D
<?xml version="1.0" encoding="UTF-8"?>

<configuration xmlns:xsi="http://www.w3.org/2001/XMLSchema-instance" xsi:noNamespaceSchemaLocation="http://sumo.dlr.de/xsd/netconvertConfiguration.xsd">

    <input>
        <osm-files value="maps/sf_downtown_bbox.osm.xml"/>
    </input>

    <output>
        <output-file value="/home/huajun/VENTOS_all/VENTOS_SUMO/tools/import/osm/osm.net.xml"/>
    </output>

    <projection>
        <proj.utm value="true"/>
    </projection>

    <edge_removal>
        <keep-edges.by-vclass value="passenger"/>
    </edge_removal>

    <processing>
        <no-internal-links value="true"/>
    </processing>

</configuration>
-->

<net version="0.13" xmlns:xsi="http://www.w3.org/2001/XMLSchema-instance" xsi:noNamespaceSchemaLocation="http://sumo.dlr.de/xsd/net_file.xsd">

    <location netOffset="-549867.32,-4179840.29" convBoundary="0.00,0.00,5822.92,4941.11" origBoundary="-122.435008,37.747669,-122.316016,37.811375" projParameter="+proj=utm +zone=10 +ellps=WGS84 +datum=WGS84 +units=m +no_defs"/>

    <type id="highway.bridleway" priority="1" numLanes="1" speed="2.78" allow="pedestrian" oneway="1" width="2.00"/>
    <type id="highway.bus_guideway" priority="1" numLanes="1" speed="8.33" allow="bus" oneway="1"/>
    <type id="highway.cycleway" priority="1" numLanes="1" speed="5.56" allow="bicycle" oneway="0" width="1.00"/>
    <type id="highway.footway" priority="1" numLanes="1" speed="8.33" allow="pedestrian" oneway="1" width="2.00"/>
    <type id="highway.ford" priority="1" numLanes="1" speed="2.78" allow="army" oneway="0"/>
    <type id="highway.living_street" priority="3" numLanes="1" speed="2.78" disallow="tram rail_urban rail rail_electric ship" oneway="0"/>
    <type id="highway.motorway" priority="13" numLanes="2" speed="44.44" allow="private emergency authority army vip passenger hov taxi bus coach delivery truck trailer motorcycle evehicle custom1 custom2" oneway="1"/>
    <type id="highway.motorway_link" priority="12" numLanes="1" speed="22.22" allow="private emergency authority army vip passenger hov taxi bus coach delivery truck trailer motorcycle evehicle custom1 custom2" oneway="1"/>
    <type id="highway.path" priority="1" numLanes="1" speed="2.78" allow="bicycle pedestrian" oneway="1" width="2.00"/>
    <type id="highway.pedestrian" priority="1" numLanes="1" speed="8.33" allow="pedestrian" oneway="1" width="2.00"/>
    <type id="highway.primary" priority="9" numLanes="2" speed="27.78" disallow="tram rail_urban rail rail_electric ship" oneway="0"/>
    <type id="highway.primary_link" priority="8" numLanes="1" speed="22.22" disallow="tram rail_urban rail rail_electric ship" oneway="0"/>
    <type id="highway.raceway" priority="14" numLanes="2" speed="83.33" allow="vip" oneway="0"/>
    <type id="highway.residential" priority="4" numLanes="1" speed="13.89" disallow="tram rail_urban rail rail_electric ship" oneway="0"/>
    <type id="highway.secondary" priority="7" numLanes="2" speed="27.78" disallow="tram rail_urban rail rail_electric ship" oneway="0"/>
    <type id="highway.secondary_link" priority="6" numLanes="1" speed="22.22" disallow="tram rail_urban rail rail_electric ship" oneway="0"/>
    <type id="highway.service" priority="2" numLanes="1" speed="5.56" allow="delivery bicycle pedestrian" oneway="0"/>
    <type id="highway.services" priority="1" numLanes="1" speed="8.33" disallow="tram rail_urban rail rail_electric ship" oneway="0"/>
    <type id="highway.stairs" priority="1" numLanes="1" speed="1.39" allow="pedestrian" oneway="1" width="2.00"/>
    <type id="highway.step" priority="1" numLanes="1" speed="1.39" allow="pedestrian" oneway="1" width="2.00"/>
    <type id="highway.steps" priority="1" numLanes="1" speed="1.39" allow="pedestrian" oneway="1" width="2.00"/>
    <type id="highway.tertiary" priority="6" numLanes="1" speed="22.22" disallow="tram rail_urban rail rail_electric ship" oneway="0"/>
    <type id="highway.tertiary_link" priority="5" numLanes="1" speed="22.22" disallow="tram rail_urban rail rail_electric ship" oneway="0"/>
    <type id="highway.track" priority="1" numLanes="1" speed="5.56" disallow="tram rail_urban rail rail_electric ship" oneway="0"/>
    <type id="highway.trunk" priority="11" numLanes="2" speed="27.78" disallow="tram rail_urban rail rail_electric bicycle pedestrian ship" oneway="0"/>
    <type id="highway.trunk_link" priority="10" numLanes="1" speed="22.22" disallow="tram rail_urban rail rail_electric bicycle pedestrian ship" oneway="0"/>
    <type id="highway.unclassified" priority="5" numLanes="1" speed="13.89" disallow="tram rail_urban rail rail_electric ship" oneway="0"/>
    <type id="highway.unsurfaced" priority="1" numLanes="1" speed="8.33" disallow="tram rail_urban rail rail_electric ship" oneway="0"/>
    <type id="railway.light_rail" priority="15" numLanes="1" speed="27.78" allow="rail_urban" oneway="1"/>
    <type id="railway.preserved" priority="15" numLanes="1" speed="27.78" allow="rail" oneway="1"/>
    <type id="railway.rail" priority="15" numLanes="1" speed="83.33" allow="rail rail_electric" oneway="1"/>
    <type id="railway.subway" priority="15" numLanes="1" speed="27.78" allow="rail_urban" oneway="1"/>
    <type id="railway.tram" priority="15" numLanes="1" speed="13.89" allow="tram" oneway="1"/>
    <type id="parking" priority="1" numLanes="1" speed="2.24" disallow="tram rail_urban rail rail_electric ship" oneway="0"/>


    <edge id="-100400941#0" from="65295328" to="65295324" priority="6" type="highway.tertiary">
        <lane id="-100400941#0_0" index="0" disallow="tram rail_urban rail rail_electric ship" speed="22.22" length="146.91" shape="1723.03,2993.70 1861.73,3017.06"/>
    </edge>
    <edge id="-100400941#1" from="65295332" to="65295328" priority="6" type="highway.tertiary">
        <lane id="-100400941#1_0" index="0" disallow="tram rail_urban rail rail_electric ship" speed="22.22" length="147.79" shape="1577.27,2969.10 1713.66,2992.12"/>
    </edge>
    <edge id="-100400942#0" from="65307381" to="65295311" priority="6" type="highway.tertiary">
        <lane id="-100400942#0_0" index="0" disallow="tram rail_urban rail rail_electric ship" speed="22.22" length="101.56" shape="2134.05,3164.22 2148.27,3071.67"/>
    </edge>
    <edge id="-100400942#1" from="65332833" to="65307381" priority="6" type="highway.tertiary">
        <lane id="-100400942#1_0" index="0" disallow="tram rail_urban rail rail_electric ship" speed="22.22" length="100.55" shape="2117.08,3264.86 2133.07,3170.29"/>
    </edge>
    <edge id="-100400944" from="65295311" to="65332818" priority="6" type="highway.tertiary">
        <lane id="-100400944_0" index="0" disallow="tram rail_urban rail rail_electric ship" speed="22.22" length="107.95" shape="2149.78,3062.19 2166.04,2963.46"/>
    </edge>
    <edge id="-100400946" from="65295314" to="65295311" priority="6" type="highway.tertiary">
        <lane id="-100400946_0" index="0" disallow="tram rail_urban rail rail_electric ship" speed="22.22" length="145.39" shape="2012.39,3041.44 2146.21,3064.73"/>
    </edge>
    <edge id="-111049101" from="65349622" to="65317569" priority="4" type="highway.residential">
        <lane id="-111049101_0" index="0" disallow="tram rail_urban rail rail_electric ship" speed="13.89" length="79.34" shape="1953.41,929.95 1902.45,979.77"/>
    </edge>
    <edge id="-111089307#0" from="65306847" to="65364094" priority="4" type="highway.residential" shape="1483.59,808.23 1380.25,863.97 1375.79,865.36 1361.92,865.79">
        <lane id="-111089307#0_0" index="0" disallow="tram rail_urban rail rail_electric ship" speed="13.89" length="135.96" shape="1477.23,813.54 1380.89,865.49 1376.07,867.00 1367.76,867.26"/>
    </edge>
    <edge id="-111089307#1" from="65312164" to="65306847" priority="4" type="highway.residential">
        <lane id="-111089307#1_0" index="0" disallow="tram rail_urban rail rail_electric ship" speed="13.89" length="73.85" shape="1545.23,776.88 1491.53,805.83"/>
    </edge>
    <edge id="-111089307#2" from="65317576" to="65312164" priority="4" type="highway.residential">
        <lane id="-111089307#2_0" index="0" disallow="tram rail_urban rail rail_electric ship" speed="13.89" length="119.09" shape="1647.13,721.94 1553.59,772.37"/>
    </edge>
    <edge id="-111089307#3" from="65289131" to="65317576" priority="4" type="highway.residential">
        <lane id="-111089307#3_0" index="0" disallow="tram rail_urban rail rail_electric ship" speed="13.89" length="66.50" shape="1708.62,688.79 1661.37,714.27"/>
    </edge>
    <edge id="-111089307#4" from="65317763" to="65289131" priority="4" type="highway.residential" shape="1823.24,625.12 1764.13,656.99 1711.96,685.12">
        <lane id="-111089307#4_0" index="0" disallow="tram rail_urban rail rail_electric ship" speed="13.89" length="126.41" shape="1819.83,628.83 1764.91,658.45 1716.98,684.28"/>
    </edge>
    <edge id="-111547662#0" from="65293741" to="1723738829" priority="7" type="highway.secondary" shape="2112.58,1925.44 2074.03,1963.75 2054.83,1974.22">
        <lane id="-111547662#0_0" index="0" disallow="tram rail_urban rail rail_electric ship" speed="11.18" length="76.21" shape="2116.07,1928.96 2077.02,1967.75 2066.16,1973.68"/>
        <lane id="-111547662#0_1" index="1" disallow="tram rail_urban rail rail_electric ship" speed="11.18" length="76.21" shape="2113.75,1926.62 2075.03,1965.08 2064.58,1970.78"/>
    </edge>
    <edge id="-111547662#1" from="65293743" to="65293741" priority="7" type="highway.secondary">
        <lane id="-111547662#1_0" index="0" disallow="tram rail_urban rail rail_electric ship" speed="11.18" length="55.48" shape="2155.47,1889.91 2116.07,1928.96"/>
        <lane id="-111547662#1_1" index="1" disallow="tram rail_urban rail rail_electric ship" speed="11.18" length="55.48" shape="2153.15,1887.57 2113.74,1926.62"/>
    </edge>
    <edge id="-111547662#2" from="65293746" to="65293743" priority="7" type="highway.secondary">
        <lane id="-111547662#2_0" index="0" disallow="tram rail_urban rail rail_electric ship" speed="11.18" length="67.31" shape="2197.40,1848.02 2155.49,1889.90"/>
        <lane id="-111547662#2_1" index="1" disallow="tram rail_urban rail rail_electric ship" speed="11.18" length="67.31" shape="2195.06,1845.68 2153.16,1887.56"/>
    </edge>
    <edge id="-111550910#0" from="260193222" to="260193349" priority="4" type="highway.residential">
        <lane id="-111550910#0_0" index="0" disallow="tram rail_urban rail rail_electric ship" speed="13.89" length="26.76" shape="3990.42,1938.59 4007.42,1937.28"/>
    </edge>
    <edge id="-111550910#1" from="65334467" to="260193222" priority="4" type="highway.residential" shape="3870.13,1878.56 3887.40,1897.07 3895.76,1905.96 3904.40,1914.13 3914.08,1921.75 3923.97,1928.28 3933.85,1933.46 3945.16,1937.80 3955.80,1940.70 3965.33,1942.22 3975.67,1942.84 3985.73,1940.61">
        <lane id="-111550910#1_0" index="0" disallow="tram rail_urban rail rail_electric ship" speed="13.89" length="138.20" shape="3874.63,1880.97 3888.60,1895.95 3896.96,1904.83 3905.53,1912.93 3915.10,1920.45 3924.88,1926.90 3934.62,1932.00 3945.75,1936.26 3956.23,1939.11 3965.59,1940.59 3975.54,1941.18 3980.12,1940.16"/>
    </edge>
    <edge id="-111550910#2" from="65317058" to="65334467" priority="4" type="highway.residential" shape="3800.55,1807.98 3853.36,1861.63 3870.13,1878.56">
        <lane id="-111550910#2_0" index="0" disallow="tram rail_urban rail rail_electric ship" speed="13.89" length="99.11" shape="3807.40,1812.59 3854.54,1860.48 3867.94,1874.02"/>
    </edge>
    <edge id="-111550911#0" from="65334469" to="65317058" priority="4" type="highway.residential" shape="3753.59,1761.87 3792.83,1801.43 3800.55,1807.98">
        <lane id="-111550911#0_0" index="0" disallow="tram rail_urban rail rail_electric ship" speed="13.89" length="65.85" shape="3754.76,1760.71 3794.01,1800.27 3795.27,1801.34"/>
    </edge>
    <edge id="-111550911#1" from="603369654" to="65334469" priority="4" type="highway.residential">
        <lane id="-111550911#1_0" index="0" disallow="tram rail_urban rail rail_electric ship" speed="13.89" length="72.24" shape="3703.89,1709.41 3754.76,1760.71"/>
    </edge>
    <edge id="-111550911#2" from="65334471" to="603369654" priority="4" type="highway.residential">
        <lane id="-111550911#2_0" index="0" disallow="tram rail_urban rail rail_electric ship" speed="13.89" length="70.56" shape="3654.12,1659.39 3703.89,1709.41"/>
    </edge>
    <edge id="-111550911#3" from="65300049" to="65334471" priority="4" type="highway.residential" shape="3606.29,1612.29 3613.76,1620.88 3652.95,1660.56">
        <lane id="-111550911#3_0" index="0" disallow="tram rail_urban rail rail_electric ship" speed="13.89" length="67.15" shape="3610.80,1614.96 3615.00,1619.80 3654.13,1659.40"/>
    </edge>
    <edge id="-111560680" from="371151373" to="65351772" priority="7" type="highway.secondary">
        <lane id="-111560680_0" index="0" disallow="tram rail_urban rail rail_electric ship" speed="27.78" length="76.57" shape="2540.27,2172.77 2590.51,2224.05"/>
        <lane id="-111560680_1" index="1" disallow="tram rail_urban rail rail_electric ship" speed="27.78" length="76.57" shape="2537.92,2175.08 2588.15,2226.36"/>
    </edge>
    <edge id="-111560681#0" from="65325185" to="65319536" priority="4" type="highway.residential" shape="2191.32,1653.14 2172.12,1672.16 2170.31,1673.99 2150.55,1693.55">
        <lane id="-111560681#0_0" index="0" disallow="tram rail_urban rail rail_electric ship" speed="13.89" length="57.40" shape="2192.48,1654.31 2173.28,1673.33 2171.48,1675.15 2151.71,1694.72"/>
    </edge>
    <edge id="-111560681#1" from="65306817" to="65325185" priority="4" type="highway.residential">
        <lane id="-111560681#1_0" index="0" disallow="tram rail_urban rail rail_electric ship" speed="13.89" length="70.03" shape="2235.91,1610.11 2192.50,1654.30"/>
    </edge>
    <edge id="-111560681#2" from="65317551" to="65306817" priority="4" type="highway.residential">
        <lane id="-111560681#2_0" index="0" disallow="tram rail_urban rail rail_electric ship" speed="13.89" length="191.30" shape="2371.50,1475.15 2247.27,1598.68"/>
    </edge>
    <edge id="-111560682" from="65308413" to="65329405" priority="7" type="highway.secondary" shape="3328.84,2974.83 3398.07,3043.61 3404.38,3053.10">
        <lane id="-111560682_0" index="0" disallow="tram rail_urban rail rail_electric ship" speed="27.78" length="108.98" shape="3334.55,2973.53 3401.91,3040.45 3406.04,3046.66"/>
        <lane id="-111560682_1" index="1" disallow="tram rail_urban rail rail_electric ship" speed="27.78" length="108.98" shape="3332.23,2975.87 3399.35,3042.56 3403.30,3048.49"/>
    </edge>
    <edge id="-111586254#0" from="65285181" to="1271001348" priority="7" type="highway.secondary">
        <lane id="-111586254#0_0" index="0" disallow="tram rail_urban rail rail_electric ship" speed="27.78" length="36.14" shape="2495.29,2732.34 2500.04,2701.36"/>
    </edge>
    <edge id="-111586254#1" from="65312464" to="65285181" priority="7" type="highway.secondary">
        <lane id="-111586254#1_0" index="0" disallow="tram rail_urban rail rail_electric ship" speed="27.78" length="16.23" shape="2492.58,2748.32 2495.29,2732.31"/>
    </edge>
    <edge id="-111586254#2" from="65328697" to="65312464" priority="7" type="highway.secondary">
        <lane id="-111586254#2_0" index="0" disallow="tram rail_urban rail rail_electric ship" speed="27.78" length="19.00" shape="2489.29,2767.01 2492.59,2748.30"/>
    </edge>
    <edge id="-111586254#3" from="65303538" to="65328697" priority="7" type="highway.secondary">
        <lane id="-111586254#3_0" index="0" disallow="tram rail_urban rail rail_electric ship" speed="27.78" length="32.69" shape="2484.73,2794.62 2489.29,2767.01"/>
    </edge>
    <edge id="-120256349" from="65329405" to="65303488" priority="7" type="highway.secondary">
        <lane id="-120256349_0" index="0" disallow="tram rail_urban rail rail_electric ship" speed="27.78" length="108.55" shape="3410.07,3051.80 3480.97,3123.31"/>
        <lane id="-120256349_1" index="1" disallow="tram rail_urban rail rail_electric ship" speed="27.78" length="108.55" shape="3407.72,3054.12 3478.63,3125.64"/>
    </edge>
    <edge id="-121785555" from="65318224" to="65333647" priority="4" type="highway.residential">
        <lane id="-121785555_0" index="0" disallow="tram rail_urban rail rail_electric ship" speed="13.89" length="113.25" shape="2988.15,1902.77 3060.87,1978.67"/>
    </edge>
    <edge id="-122498865" from="65321839" to="65306931" priority="4" type="highway.residential">
        <lane id="-122498865_0" index="0" disallow="tram rail_urban rail rail_electric ship" speed="13.89" length="66.20" shape="2330.14,1981.30 2288.88,2022.27"/>
    </edge>
    <edge id="-131700725" from="65355354" to="300662230" priority="1" type="highway.track">
        <lane id="-131700725_0" index="0" disallow="tram rail_urban rail rail_electric ship" speed="5.56" length="145.05" shape="3287.39,1140.63 3180.73,1050.60"/>
    </edge>
    <edge id="-133376113#0" from="2166924255" to="295185114" priority="5" type="highway.unclassified" shape="1908.11,3632.18 1907.05,3638.60 1906.03,3644.73">
        <lane id="-133376113#0_0" index="0" disallow="tram rail_urban rail rail_electric ship" speed="13.89" length="12.72" shape="1909.74,3632.45 1908.68,3638.87 1907.95,3643.21"/>
    </edge>
    <edge id="-133376113#1" from="295185200" to="2166924255" priority="5" type="highway.unclassified">
        <lane id="-133376113#1_0" index="0" disallow="tram rail_urban rail rail_electric ship" speed="13.89" length="18.02" shape="1912.43,3616.15 1909.74,3632.45"/>
    </edge>
    <edge id="-133376113#2" from="65326714" to="295185200" priority="5" type="highway.unclassified">
        <lane id="-133376113#2_0" index="0" disallow="tram rail_urban rail rail_electric ship" speed="13.89" length="79.08" shape="1925.34,3538.13 1912.93,3613.13"/>
    </edge>
    <edge id="-133376114#0" from="65305626" to="65326714" priority="5" type="highway.unclassified">
        <lane id="-133376114#0_0" index="0" disallow="tram rail_urban rail rail_electric ship" speed="13.89" length="51.52" shape="1934.26,3485.88 1926.04,3533.95"/>
    </edge>
    <edge id="-133376114#1" from="65326716" to="65305626" priority="5" type="highway.unclassified">
        <lane id="-133376114#1_0" index="0" disallow="tram rail_urban rail rail_electric ship" speed="13.89" length="47.38" shape="1941.24,3442.22 1934.26,3485.86"/>
    </edge>
    <edge id="-133376114#2" from="65326722" to="65326716" priority="5" type="highway.unclassified" shape="1957.44,3340.62 1957.30,3341.82 1947.56,3399.80 1940.11,3438.81">
        <lane id="-133376114#2_0" index="0" disallow="tram rail_urban rail rail_electric ship" speed="13.89" length="99.72" shape="1958.62,3343.90 1949.18,3400.08 1942.34,3435.95"/>
    </edge>
    <edge id="-133376120#0" from="65343994" to="65343985" priority="5" type="highway.unclassified">
        <lane id="-133376120#0_0" index="0" disallow="tram rail_urban rail rail_electric ship" speed="13.89" length="49.63" shape="1770.65,3556.22 1777.63,3516.70"/>
    </edge>
    <edge id="-133376120#1" from="65333898" to="65343994" priority="5" type="highway.unclassified" shape="1763.27,3617.37 1763.61,3606.83 1771.46,3561.13">
        <lane id="-133376120#1_0" index="0" disallow="tram rail_urban rail rail_electric ship" speed="13.89" length="56.91" shape="1761.79,3612.01 1761.96,3606.78 1769.02,3565.57"/>
    </edge>
    <edge id="-133376120#10" from="65323324" to="65322669" priority="5" type="highway.unclassified">
        <lane id="-133376120#10_0" index="0" disallow="tram rail_urban rail rail_electric ship" speed="13.89" length="53.05" shape="1684.82,4077.11 1692.03,4034.18"/>
    </edge>
    <edge id="-133376120#11" from="65336082" to="65323324" priority="5" type="highway.unclassified">
        <lane id="-133376120#11_0" index="0" disallow="tram rail_urban rail rail_electric ship" speed="13.89" length="52.29" shape="1676.20,4128.68 1683.25,4086.48"/>
    </edge>
    <edge id="-133376120#12" from="65344009" to="65336082" priority="5" type="highway.unclassified">
        <lane id="-133376120#12_0" index="0" disallow="tram rail_urban rail rail_electric ship" speed="13.89" length="103.12" shape="1658.70,4230.25 1674.60,4138.09"/>
    </edge>
    <edge id="-133376120#13" from="1582797185" to="65344009" priority="5" type="highway.unclassified">
        <lane id="-133376120#13_0" index="0" disallow="tram rail_urban rail rail_electric ship" speed="13.89" length="86.58" shape="1643.36,4320.34 1657.08,4239.71"/>
    </edge>
    <edge id="-133376120#14" from="65317133" to="1582797185" priority="5" type="highway.unclassified">
        <lane id="-133376120#14_0" index="0" disallow="tram rail_urban rail rail_electric ship" speed="13.89" length="18.53" shape="1642.88,4323.16 1643.36,4320.34"/>
    </edge>
    <edge id="-133376120#2" from="65344005" to="65333898" priority="5" type="highway.unclassified" shape="1752.37,3687.73 1762.42,3627.98 1763.27,3617.37">
        <lane id="-133376120#2_0" index="0" disallow="tram rail_urban rail rail_electric ship" speed="13.89" length="71.25" shape="1750.74,3687.47 1760.79,3627.71 1761.22,3622.35"/>
    </edge>
    <edge id="-133376120#3" from="65299351" to="65344005" priority="5" type="highway.unclassified" shape="1746.61,3718.73 1748.69,3707.34 1752.37,3687.73">
        <lane id="-133376120#3_0" index="0" disallow="tram rail_urban rail rail_electric ship" speed="13.89" length="31.53" shape="1744.99,3718.44 1747.06,3707.04 1750.75,3687.43"/>
    </edge>
    <edge id="-133376120#4" from="612031523" to="65299351" priority="5" type="highway.unclassified" shape="1730.64,3821.74 1745.01,3727.67 1746.61,3718.73">
        <lane id="-133376120#4_0" index="0" disallow="tram rail_urban rail rail_electric ship" speed="13.89" length="104.24" shape="1729.72,3816.87 1743.38,3727.42 1744.99,3718.44"/>
    </edge>
    <edge id="-133376120#5" from="600650001" to="612031523" priority="5" type="highway.unclassified">
        <lane id="-133376120#5_0" index="0" disallow="tram rail_urban rail rail_electric ship" speed="13.89" length="9.13" shape="1727.25,3830.38 1728.12,3826.01"/>
    </edge>
    <edge id="-133376120#6" from="65292109" to="600650001" priority="5" type="highway.unclassified">
        <lane id="-133376120#6_0" index="0" disallow="tram rail_urban rail rail_electric ship" speed="13.89" length="46.39" shape="1717.91,3875.81 1727.25,3830.36"/>
    </edge>
    <edge id="-133376120#7" from="65312664" to="65292109" priority="5" type="highway.unclassified">
        <lane id="-133376120#7_0" index="0" disallow="tram rail_urban rail rail_electric ship" speed="13.89" length="51.86" shape="1709.91,3922.27 1717.91,3875.83"/>
    </edge>
    <edge id="-133376120#8" from="65330996" to="65312664" priority="5" type="highway.unclassified">
        <lane id="-133376120#8_0" index="0" disallow="tram rail_urban rail rail_electric ship" speed="13.89" length="52.98" shape="1700.33,3979.22 1708.31,3931.66"/>
    </edge>
    <edge id="-133376120#9" from="65322669" to="65330996" priority="5" type="highway.unclassified">
        <lane id="-133376120#9_0" index="0" disallow="tram rail_urban rail rail_electric ship" speed="13.89" length="50.83" shape="1693.52,4024.76 1700.33,3979.23"/>
    </edge>
    <edge id="-133733582#0" from="65350745" to="65351431" priority="5" type="highway.unclassified" shape="1074.49,1503.89 1062.35,1501.85 929.85,1479.65 783.05,1455.05">
        <lane id="-133733582#0_0" index="0" disallow="tram rail_urban rail rail_electric ship" speed="13.89" length="295.50" shape="1074.22,1505.52 1062.08,1503.48 929.58,1481.28 782.78,1456.68"/>
    </edge>
    <edge id="-133733582#1" from="65356392" to="65350745" priority="5" type="highway.unclassified" shape="1212.50,1527.03 1200.60,1525.07 1162.96,1518.89 1103.55,1508.76 1081.52,1505.07 1074.49,1503.89">
        <lane id="-133733582#1_0" index="0" disallow="tram rail_urban rail rail_electric ship" speed="13.89" length="139.94" shape="1212.24,1528.65 1200.33,1526.69 1162.69,1520.51 1103.27,1510.39 1081.25,1506.69 1074.22,1505.52"/>
    </edge>
    <edge id="-133733582#2" from="258758038" to="65356392" priority="5" type="highway.unclassified">
        <lane id="-133733582#2_0" index="0" disallow="tram rail_urban rail rail_electric ship" speed="13.89" length="14.16" shape="1226.20,1530.99 1212.23,1528.65"/>
    </edge>
    <edge id="-133733582#3" from="65327138" to="258758038" priority="5" type="highway.unclassified" shape="1364.07,1552.43 1234.09,1530.64 1226.47,1529.36">
        <lane id="-133733582#3_0" index="0" disallow="tram rail_urban rail rail_electric ship" speed="13.89" length="139.52" shape="1359.12,1553.28 1233.82,1532.27 1226.20,1530.99"/>
    </edge>
    <edge id="-133755923#0" from="65293797" to="65303721" priority="4" type="highway.residential" shape="3024.10,1028.11 2875.77,879.34 2869.69,872.76 2863.72,866.70 2833.76,835.98 2826.00,828.13">
        <lane id="-133755923#0_0" index="0" disallow="tram rail_urban rail rail_electric ship" speed="11.18" length="281.50" shape="3019.45,1025.78 2874.61,880.51 2868.48,873.88 2862.54,867.86 2832.58,837.13 2830.47,835.00"/>
    </edge>
    <edge id="-133755923#1" from="65325061" to="65293797" priority="4" type="highway.residential" shape="3215.74,1220.32 3207.10,1212.23 3028.72,1033.02 3024.10,1028.11">
        <lane id="-133755923#1_0" index="0" disallow="tram rail_urban rail rail_electric ship" speed="11.18" length="271.44" shape="3211.00,1218.14 3205.97,1213.44 3027.55,1034.18 3026.10,1032.63"/>
    </edge>
    <edge id="-133755930#0" from="65300043" to="260193156" priority="9" type="highway.primary">
        <lane id="-133755930#0_0" index="0" disallow="tram rail_urban rail rail_electric ship" speed="27.78" length="70.78" shape="3753.28,1471.66 3708.25,1515.60"/>
        <lane id="-133755930#0_1" index="1" disallow="tram rail_urban rail rail_electric ship" speed="27.78" length="70.78" shape="3750.97,1469.30 3705.94,1513.24"/>
    </edge>
    <edge id="-133755930#1" from="2845162694" to="65300043" priority="9" type="highway.primary">
        <lane id="-133755930#1_0" index="0" disallow="tram rail_urban rail rail_electric ship" speed="27.78" length="26.24" shape="3771.49,1453.89 3757.72,1467.33"/>
        <lane id="-133755930#1_1" index="1" disallow="tram rail_urban rail rail_electric ship" speed="27.78" length="26.24" shape="3769.18,1451.53 3755.41,1464.97"/>
    </edge>
    <edge id="-133781749" from="65352339" to="65327144" priority="6" type="highway.tertiary" shape="1192.89,1733.02 1201.58,1734.42 1222.60,1737.78 1294.79,1749.24 1317.97,1753.03 1329.81,1755.04">
        <lane id="-133781749_0" index="0" disallow="tram rail_urban rail rail_electric ship" speed="22.22" length="138.68" shape="1193.15,1731.39 1201.84,1732.79 1222.86,1736.15 1295.05,1747.61 1318.23,1751.40 1325.41,1752.62"/>
    </edge>
    <edge id="-133781759#0" from="2908408448" to="65352337" priority="6" type="highway.tertiary">
        <lane id="-133781759#0_0" index="0" disallow="tram rail_urban rail rail_electric ship" speed="22.22" length="14.23" shape="1460.53,1776.68 1469.91,1778.15"/>
    </edge>
    <edge id="-133781759#1" from="267294252" to="2908408448" priority="6" type="highway.tertiary">
        <lane id="-133781759#1_0" index="0" disallow="tram rail_urban rail rail_electric ship" speed="22.22" length="83.89" shape="1378.10,1761.37 1460.58,1776.69"/>
    </edge>
    <edge id="-133781759#2" from="65327144" to="267294252" priority="6" type="highway.tertiary" shape="1329.81,1755.04 1340.51,1756.72 1377.80,1763.00">
        <lane id="-133781759#2_0" index="0" disallow="tram rail_urban rail rail_electric ship" speed="22.22" length="48.64" shape="1334.93,1754.17 1340.76,1755.09 1378.09,1761.37"/>
    </edge>
    <edge id="-135110258#0" from="65290200" to="65290207" priority="6" type="highway.tertiary" shape="3719.83,2268.72 3703.46,2250.61 3659.01,2206.82">
        <lane id="-135110258#0_0" index="0" disallow="tram rail_urban rail rail_electric ship" speed="11.18" length="86.80" shape="3718.05,2269.21 3702.24,2251.71 3657.85,2208.00"/>
    </edge>
    <edge id="-135110258#1" from="65290189" to="65290200" priority="6" type="highway.tertiary" shape="3796.51,2362.57 3760.34,2325.59 3719.83,2268.72">
        <lane id="-135110258#1_0" index="0" disallow="tram rail_urban rail rail_electric ship" speed="11.18" length="121.55" shape="3794.27,2362.63 3759.16,2326.75 3718.92,2270.29"/>
    </edge>
    <edge id="-141688972#0" from="239601901" to="65293779" priority="6" type="highway.tertiary">
        <lane id="-141688972#0_0" index="0" disallow="tram rail_urban rail rail_electric ship" speed="22.22" length="14.90" shape="2893.62,1171.06 2888.81,1166.19"/>
    </edge>
    <edge id="-141688972#1" from="65315481" to="239601901" priority="6" type="highway.tertiary" shape="3079.08,1355.80 2954.12,1229.74 2894.80,1169.90">
        <lane id="-141688972#1_0" index="0" disallow="tram rail_urban rail rail_electric ship" speed="22.22" length="261.76" shape="3074.57,1353.58 2952.95,1230.90 2893.62,1171.06"/>
    </edge>
    <edge id="-141688972#2" from="65315477" to="65315481" priority="6" type="highway.tertiary">
        <lane id="-141688972#2_0" index="0" disallow="tram rail_urban rail rail_electric ship" speed="22.22" length="276.64" shape="3269.32,1550.05 3081.26,1360.33"/>
    </edge>