<additional xmlns:xsi="http://www.w3.org/2001/XMLSchema-instance" xsi:noNamespaceSchemaLocation="http://sumo-sim.org/xsd/additional_file.xsd">

   <poi id="PG_1" type="PG" x="2520" y="3083" color="1,1,1" imgFile="parking.bmp" width="40" height="40"/>
   <poi id="PG_2" type="PG" x="2437" y="2822" color="1,1,1" imgFile="parking.bmp" width="40" height="40"/>
   <poi id="PG_5" type="PG" x="2550" y="2141" color="1,1,1" imgFile="parking.bmp" width="40" height="40"/>
   <poi id="PG_3" type="PG" x="2340" y="2405" color="1,1,1" imgFile="parking.bmp" width="40" height="40"/>
   <poi id="PG_6" type="PG" x="3000" y="3465" color="1,1,1" imgFile="parking.bmp" width="40" height="40"/>
   <poi id="PG_7" type="PG" x="2340" y="2619" color="1,1,1" imgFile="parking.bmp" width="40" height="40"/>
   <poi id="PG_4" type="PG" x="3040" y="2270" color="1,1,1" imgFile="parking.bmp" width="40" height="40"/>


   <poly id="1" color="RED" fill="true" shape="1840,3390 2850,3390 2850,4400 1840,4400" layer="0"/>

</additional>
