<additional xmlns:xsi="http://www.w3.org/2001/XMLSchema-instance" xsi:noNamespaceSchemaLocation="http://sumo-sim.org/xsd/additional_file.xsd">

<poly id="1" color="RED" fill="true" layer="0" shape="1995.18576652,3554.44490655 1924.2131151,3541.90392829 1911.70827696,3612.28107967 1909.14617441,3627.68760619 1907.58879954,3637.33084843 1904.86516155,3650.4063072 1893.12777889,3710.80239963 1886.6448256,3747.70940987 1869.3470239,3852.34129864 1858.79596864,3920.17889349 1853.2101778,3954.42867497 1847.26692868,3989.56380666 1836.36536231,4057.17734727 1827.22028,4111.48737366 1821.21513553,4156.49708842 1816.91378103,4182.54428035 1815.17282336,4193.40689458 1830.50298105,4177.52583559 1832.40326958,4169.32711594 1844.60992149,4160.19462542 1855.05086852,4151.82771823 1937.99443837,4080.00731646 1947.28138806,4073.18661873 1992.26539577,4031.86218979 2047.1560899,3983.27748352 2155.30632059,3893.75469463 2167.08469802,3882.84471112 2259.94369516,3803.21243302 2317.84630914,3752.20758787 2331.83522873,3739.86944042 2360.70899849,3712.75780344 2399.21726527,3679.71601412 2417.08803151,3666.18218087 2424.66782447,3664.89891636 2466.42783878,3632.87664738 2382.62157744,3617.25443712 2352.98868349,3611.29668658 2285.01736325,3597.66221676 2211.9136162,3588.10100417 2187.46088816,3584.39582588 2174.62519935,3581.42984387 2139.18143912,3575.43618188 2067.92541055,3565.99887899 2042.76680017,3562.51161482 1995.18576652,3554.44490655 "/>

</additional>