<?xml version="1.0" encoding="UTF-8"?>

<additional xmlns:xsi="http://www.w3.org/2001/XMLSchema-instance" xsi:noNamespaceSchemaLocation="http://sumo.dlr.de/xsd/additional_file.xsd">
    <edgeData id="1" file="Scenario_Set_1/results/edgedata_traffic_1.xml"/>
    <edgeData id="2" file="Scenario_Set_1/results/edgedata_emmision_1.xml"/>
    <edgeData id="3" file="Scenario_Set_1/results/edgedata_noise_1.xml"/>
</additional>
