<net xmlns:xsi="http://www.w3.org/2001/XMLSchema-instance" version="1.1" junctionCornerDetail="5" limitTurnSpeed="5.50" xsi:noNamespaceSchemaLocation="http://sumo.dlr.de/xsd/net_file.xsd">

    <location netOffset="-581705.10,-4232421.05" convBoundary="763.06,0.00,2659.59,2487.68" origBoundary="-122.066282,38.205608,-122.020606,38.260615" projParameter="+proj=utm +zone=10 +ellps=WGS84 +datum=WGS84 +units=m +no_defs"/>

    <type id="highway.bridleway" priority="1" numLanes="1" speed="2.78" allow="pedestrian" oneway="1" width="2.00"/>
    <type id="highway.bus_guideway" priority="1" numLanes="1" speed="8.33" allow="bus" oneway="1"/>
    <type id="highway.cycleway" priority="1" numLanes="1" speed="5.56" allow="bicycle" oneway="0" width="1.00"/>
    <type id="highway.footway" priority="1" numLanes="1" speed="2.78" allow="pedestrian" oneway="1" width="2.00"/>
    <type id="highway.ford" priority="1" numLanes="1" speed="2.78" allow="army" oneway="0"/>
    <type id="highway.living_street" priority="3" numLanes="1" speed="2.78" disallow="tram rail_urban rail rail_electric ship" oneway="0"/>
    <type id="highway.motorway" priority="13" numLanes="2" speed="44.44" allow="private emergency authority army vip passenger hov taxi bus coach delivery truck trailer motorcycle evehicle custom1 custom2" oneway="1"/>
    <type id="highway.motorway_link" priority="12" numLanes="1" speed="22.22" allow="private emergency authority army vip passenger hov taxi bus coach delivery truck trailer motorcycle evehicle custom1 custom2" oneway="1"/>
    <type id="highway.path" priority="1" numLanes="1" speed="2.78" allow="bicycle pedestrian" oneway="1" width="2.00"/>
    <type id="highway.pedestrian" priority="1" numLanes="1" speed="2.78" allow="pedestrian" oneway="1" width="2.00"/>
    <type id="highway.primary" priority="9" numLanes="2" speed="27.78" disallow="tram rail_urban rail rail_electric ship" oneway="0"/>
    <type id="highway.primary_link" priority="8" numLanes="1" speed="22.22" disallow="tram rail_urban rail rail_electric ship" oneway="0"/>
    <type id="highway.raceway" priority="14" numLanes="2" speed="83.33" allow="vip" oneway="0"/>
    <type id="highway.residential" priority="4" numLanes="1" speed="13.89" disallow="tram rail_urban rail rail_electric ship" oneway="0"/>
    <type id="highway.secondary" priority="7" numLanes="2" speed="27.78" disallow="tram rail_urban rail rail_electric ship" oneway="0"/>
    <type id="highway.secondary_link" priority="6" numLanes="1" speed="22.22" disallow="tram rail_urban rail rail_electric ship" oneway="0"/>
    <type id="highway.service" priority="2" numLanes="1" speed="5.56" allow="delivery bicycle pedestrian" oneway="0"/>
    <type id="highway.services" priority="1" numLanes="1" speed="8.33" disallow="tram rail_urban rail rail_electric ship" oneway="0"/>
    <type id="highway.stairs" priority="1" numLanes="1" speed="1.39" allow="pedestrian" oneway="1" width="2.00"/>
    <type id="highway.step" priority="1" numLanes="1" speed="1.39" allow="pedestrian" oneway="1" width="2.00"/>
    <type id="highway.steps" priority="1" numLanes="1" speed="1.39" allow="pedestrian" oneway="1" width="2.00"/>
    <type id="highway.tertiary" priority="6" numLanes="1" speed="22.22" disallow="tram rail_urban rail rail_electric ship" oneway="0"/>
    <type id="highway.tertiary_link" priority="5" numLanes="1" speed="22.22" disallow="tram rail_urban rail rail_electric ship" oneway="0"/>
    <type id="highway.track" priority="1" numLanes="1" speed="5.56" disallow="tram rail_urban rail rail_electric ship" oneway="0"/>
    <type id="highway.trunk" priority="11" numLanes="2" speed="27.78" disallow="tram rail_urban rail rail_electric bicycle pedestrian ship" oneway="0"/>
    <type id="highway.trunk_link" priority="10" numLanes="1" speed="22.22" disallow="tram rail_urban rail rail_electric bicycle pedestrian ship" oneway="0"/>
    <type id="highway.unclassified" priority="5" numLanes="1" speed="13.89" disallow="tram rail_urban rail rail_electric ship" oneway="0"/>
    <type id="highway.unsurfaced" priority="1" numLanes="1" speed="8.33" disallow="tram rail_urban rail rail_electric ship" oneway="0"/>
    <type id="railway.light_rail" priority="15" numLanes="1" speed="27.78" allow="rail_urban" oneway="1"/>
    <type id="railway.preserved" priority="15" numLanes="1" speed="27.78" allow="rail" oneway="1"/>
    <type id="railway.rail" priority="15" numLanes="1" speed="83.33" allow="rail rail_electric" oneway="1"/>
    <type id="railway.subway" priority="15" numLanes="1" speed="27.78" allow="rail_urban" oneway="1"/>
    <type id="railway.tram" priority="15" numLanes="1" speed="13.89" allow="tram" oneway="1"/>

    <edge id=":1722576158_0" function="internal">
        <lane id=":1722576158_0_0" index="0" disallow="tram rail_urban rail rail_electric ship" speed="3.65" length="4.67" shape="2364.93,2487.69 2364.12,2488.88 2363.32,2489.28 2362.52,2488.88 2361.73,2487.67"/>
    </edge>
    <edge id=":294985155_0" function="internal">
        <lane id=":294985155_0_0" index="0" disallow="tram rail_urban rail rail_electric ship" speed="27.78" length="8.20" shape="1424.44,788.16 1424.96,790.51 1425.68,792.04 1426.40,793.58 1426.91,795.94"/>
        <lane id=":294985155_0_1" index="1" disallow="tram rail_urban rail rail_electric ship" speed="27.78" length="8.20" shape="1421.26,788.51 1421.78,790.86 1422.50,792.39 1423.22,793.92 1423.73,796.28"/>
    </edge>
    <edge id=":3491829323_0" function="internal">
        <lane id=":3491829323_0_0" index="0" disallow="tram rail_urban rail rail_electric ship" speed="13.44" length="5.32" shape="1780.80,1496.93 1780.80,1498.51 1780.83,1499.61 1781.06,1500.66 1781.67,1502.10"/>
    </edge>
    <edge id=":3491829323_1" function="internal">
        <lane id=":3491829323_1_0" index="0" disallow="tram rail_urban rail rail_electric ship" speed="3.65" length="2.34" shape="1780.80,1496.93 1780.02,1498.14 1779.23,1498.56"/>
    </edge>
    <edge id=":3491829323_4" function="internal">
        <lane id=":3491829323_4_0" index="0" disallow="tram rail_urban rail rail_electric ship" speed="3.65" length="2.34" shape="1779.23,1498.56 1778.42,1498.18 1777.60,1496.99"/>
    </edge>
    <edge id=":3491829323_2" function="internal">
        <lane id=":3491829323_2_0" index="0" disallow="tram rail_urban rail rail_electric ship" speed="7.71" length="4.00" shape="1776.41,1500.69 1777.10,1499.73 1777.46,1498.98 1777.60,1498.17 1777.60,1496.99"/>
    </edge>
    <edge id=":3491829323_3" function="internal">
        <lane id=":3491829323_3_0" index="0" disallow="tram rail_urban rail rail_electric ship" speed="5.15" length="3.36" shape="1776.41,1500.69 1777.79,1499.38 1779.12,1499.18 1779.22,1499.24"/>
    </edge>
    <edge id=":3491829323_5" function="internal">
        <lane id=":3491829323_5_0" index="0" disallow="tram rail_urban rail rail_electric ship" speed="5.15" length="3.84" shape="1779.22,1499.24 1780.42,1500.08 1781.67,1502.10"/>
    </edge>
    <edge id=":3491829334_0" function="internal">
        <lane id=":3491829334_0_0" index="0" disallow="tram rail_urban rail rail_electric ship" speed="13.89" length="0.28" shape="1781.07,1462.44 1781.06,1462.52 1781.09,1462.57 1781.12,1462.62 1781.13,1462.70"/>
    </edge>
    <edge id=":3491829334_1" function="internal">
        <lane id=":3491829334_1_0" index="0" disallow="tram rail_urban rail rail_electric ship" speed="3.94" length="2.19" shape="1781.07,1462.44 1780.35,1463.59 1779.62,1463.98"/>
    </edge>
    <edge id=":3491829334_4" function="internal">
        <lane id=":3491829334_4_0" index="0" disallow="tram rail_urban rail rail_electric ship" speed="3.94" length="2.19" shape="1779.62,1463.98 1778.86,1463.63 1778.08,1462.53"/>
    </edge>
    <edge id=":3491829334_2" function="internal">
        <lane id=":3491829334_2_0" index="0" disallow="tram rail_urban rail rail_electric ship" speed="13.89" length="0.15" shape="1777.93,1462.57 1778.08,1462.53"/>
    </edge>
    <edge id=":3491829334_3" function="internal">
        <lane id=":3491829334_3_0" index="0" disallow="tram rail_urban rail rail_electric ship" speed="3.65" length="2.34" shape="1777.93,1462.57 1778.78,1461.40 1779.60,1461.04"/>
    </edge>
    <edge id=":3491829334_5" function="internal">
        <lane id=":3491829334_5_0" index="0" disallow="tram rail_urban rail rail_electric ship" speed="3.65" length="2.34" shape="1779.60,1461.04 1780.38,1461.47 1781.13,1462.70"/>
    </edge>
    <edge id=":3491829335_0" function="internal">
        <lane id=":3491829335_0_0" index="0" disallow="tram rail_urban rail rail_electric ship" speed="13.89" length="0.17" shape="1781.44,1375.02 1781.35,1375.17"/>
    </edge>
    <edge id=":3491829335_1" function="internal">
        <lane id=":3491829335_1_0" index="0" disallow="tram rail_urban rail rail_electric ship" speed="3.65" length="2.34" shape="1781.44,1375.02 1780.62,1376.21 1779.82,1376.60"/>
    </edge>
    <edge id=":3491829335_4" function="internal">
        <lane id=":3491829335_4_0" index="0" disallow="tram rail_urban rail rail_electric ship" speed="3.65" length="2.34" shape="1779.82,1376.60 1779.02,1376.18 1778.24,1374.97"/>
    </edge>
    <edge id=":3491829335_2" function="internal">
        <lane id=":3491829335_2_0" index="0" disallow="tram rail_urban rail rail_electric ship" speed="13.89" length="0.12" shape="1778.36,1375.01 1778.24,1374.97"/>
    </edge>
    <edge id=":3491829335_3" function="internal">
        <lane id=":3491829335_3_0" index="0" disallow="tram rail_urban rail rail_electric ship" speed="3.94" length="2.19" shape="1778.36,1375.01 1779.17,1373.92 1779.94,1373.59"/>
    </edge>
    <edge id=":3491829335_5" function="internal">
        <lane id=":3491829335_5_0" index="0" disallow="tram rail_urban rail rail_electric ship" speed="3.94" length="2.19" shape="1779.94,1373.59 1780.66,1374.00 1781.35,1375.17"/>
    </edge>
    <edge id=":4355037388_0" function="internal">
        <lane id=":4355037388_0_0" index="0" disallow="tram rail_urban rail rail_electric ship" speed="27.78" length="7.77" shape="2571.60,1488.11 2569.51,1487.35 2568.30,1486.14 2567.08,1484.99 2564.98,1484.47"/>
    </edge>
    <edge id=":4355037388_1" function="internal">
        <lane id=":4355037388_1_0" index="0" disallow="tram rail_urban rail rail_electric ship" speed="3.65" length="2.34" shape="2571.99,1484.93 2570.89,1483.99 2570.59,1483.15"/>
    </edge>
    <edge id=":4355037388_6" function="internal">
        <lane id=":4355037388_6_0" index="0" disallow="tram rail_urban rail rail_electric ship" speed="3.65" length="2.34" shape="2570.59,1483.15 2571.08,1482.41 2572.37,1481.76"/>
    </edge>
    <edge id=":4355037388_2" function="internal">
        <lane id=":4355037388_2_0" index="0" disallow="tram rail_urban rail rail_electric ship" speed="27.78" length="8.17" shape="2565.04,1478.07 2567.51,1477.60 2569.11,1476.56 2570.69,1475.61 2573.15,1475.40"/>
        <lane id=":4355037388_2_1" index="1" disallow="tram rail_urban rail rail_electric ship" speed="27.78" length="8.17" shape="2565.01,1481.27 2567.38,1480.80 2568.90,1479.76 2570.41,1478.80 2572.76,1478.58"/>
        <lane id=":4355037388_2_2" index="2" disallow="tram rail_urban rail rail_electric ship" speed="27.78" length="8.17" shape="2565.01,1481.27 2567.20,1481.30 2568.70,1481.36 2570.20,1481.50 2572.37,1481.76"/>
    </edge>
    <edge id=":4355037388_5" function="internal">
        <lane id=":4355037388_5_0" index="0" disallow="tram rail_urban rail rail_electric ship" speed="3.65" length="2.67" shape="2565.01,1481.27 2566.20,1482.09 2566.60,1482.89 2566.44,1483.19"/>
    </edge>
    <edge id=":4355037388_7" function="internal">
        <lane id=":4355037388_7_0" index="0" disallow="tram rail_urban rail rail_electric ship" speed="3.65" length="2.00" shape="2566.44,1483.19 2566.19,1483.69 2564.98,1484.47"/>
    </edge>
    <edge id=":4356268104_0" function="internal">
        <lane id=":4356268104_0_0" index="0" disallow="tram rail_urban rail rail_electric ship" speed="27.78" length="15.98" shape="1402.85,1114.72 1403.03,1109.98 1403.54,1106.76 1404.07,1103.54 1404.32,1098.80"/>
        <lane id=":4356268104_0_1" index="1" disallow="tram rail_urban rail rail_electric ship" speed="27.78" length="15.98" shape="1406.05,1114.66 1406.22,1109.95 1406.74,1106.73 1407.27,1103.52 1407.52,1098.80"/>
    </edge>
    <edge id=":4356268104_2" function="internal">
        <lane id=":4356268104_2_0" index="0" disallow="tram rail_urban rail rail_electric ship" speed="7.87" length="13.74" shape="1409.25,1114.61 1409.36,1109.05 1409.88,1105.07 1410.83,1102.68 1412.20,1101.87"/>
    </edge>
    <edge id=":4356268104_3" function="internal">
        <lane id=":4356268104_3_0" index="0" disallow="tram rail_urban rail rail_electric ship" speed="7.02" length="10.72" shape="1409.25,1114.61 1409.38,1110.45 1409.92,1107.47 1410.87,1105.68 1412.24,1105.07"/>
    </edge>
    <edge id=":4356268104_4" function="internal">
        <lane id=":4356268104_4_0" index="0" disallow="tram rail_urban rail rail_electric ship" speed="8.64" length="16.85" shape="1412.31,1111.47 1408.81,1110.71 1406.32,1108.35 1404.82,1104.38 1404.32,1098.80"/>
    </edge>
    <edge id=":4356268104_5" function="internal">
        <lane id=":4356268104_5_0" index="0" disallow="tram rail_urban rail rail_electric ship" speed="7.30" length="11.73" shape="1412.27,1108.27 1410.19,1107.70 1408.71,1105.93 1407.82,1102.96 1407.52,1098.80"/>
    </edge>
    <edge id=":4356268104_6" function="internal">
        <lane id=":4356268104_6_0" index="0" disallow="tram rail_urban rail rail_electric ship" speed="3.65" length="4.67" shape="1412.27,1108.27 1411.06,1107.48 1410.65,1106.69 1411.04,1105.88 1412.24,1105.07"/>
    </edge>
    <edge id=":4356268107_0" function="internal">
        <lane id=":4356268107_0_0" index="0" disallow="tram rail_urban rail rail_electric ship" speed="27.78" length="8.17" shape="1404.41,1162.33 1404.15,1159.92 1403.61,1158.31 1403.10,1156.69 1402.91,1154.29"/>
        <lane id=":4356268107_0_1" index="1" disallow="tram rail_urban rail rail_electric ship" speed="27.78" length="8.17" shape="1404.41,1162.33 1404.65,1159.94 1405.21,1158.35 1405.79,1156.76 1406.11,1154.37"/>
        <lane id=":4356268107_0_2" index="2" disallow="tram rail_urban rail rail_electric ship" speed="27.78" length="8.17" shape="1407.61,1162.32 1407.85,1159.96 1408.41,1158.39 1408.99,1156.82 1409.31,1154.46"/>
    </edge>
    <edge id=":4356268115_0" function="internal">
        <lane id=":4356268115_0_0" index="0" disallow="tram rail_urban rail rail_electric ship" speed="27.78" length="8.39" shape="2413.89,1483.73 2411.44,1484.21 2409.90,1485.30 2408.36,1486.40 2405.90,1486.90"/>
        <lane id=":4356268115_0_1" index="1" disallow="tram rail_urban rail rail_electric ship" speed="27.78" length="8.39" shape="2413.89,1483.73 2405.91,1483.70"/>
    </edge>
    <edge id=":4356268115_2" function="internal">
        <lane id=":4356268115_2_0" index="0" disallow="tram rail_urban rail rail_electric ship" speed="3.65" length="2.34" shape="2413.89,1483.73 2412.70,1482.92 2412.30,1482.12"/>
    </edge>
    <edge id=":4356268115_6" function="internal">
        <lane id=":4356268115_6_0" index="0" disallow="tram rail_urban rail rail_electric ship" speed="3.65" length="2.34" shape="2412.30,1482.12 2412.71,1481.32 2413.92,1480.53"/>
    </edge>
    <edge id=":4356268115_3" function="internal">
        <lane id=":4356268115_3_0" index="0" disallow="tram rail_urban rail rail_electric ship" speed="27.78" length="8.42" shape="2405.91,1480.50 2408.38,1480.00 2409.92,1478.90 2411.47,1477.81 2413.94,1477.33"/>
        <lane id=":4356268115_3_1" index="1" disallow="tram rail_urban rail rail_electric ship" speed="27.78" length="8.42" shape="2405.91,1480.50 2413.92,1480.53"/>
    </edge>
    <edge id=":4356268115_5" function="internal">
        <lane id=":4356268115_5_0" index="0" disallow="tram rail_urban rail rail_electric ship" speed="3.65" length="2.34" shape="2405.91,1480.50 2407.11,1481.30 2407.51,1482.10"/>
    </edge>
    <edge id=":4356268115_7" function="internal">
        <lane id=":4356268115_7_0" index="0" disallow="tram rail_urban rail rail_electric ship" speed="3.65" length="2.34" shape="2407.51,1482.10 2407.11,1482.90 2405.91,1483.70"/>
    </edge>
    <edge id=":4356268116_0" function="internal">
        <lane id=":4356268116_0_0" index="0" disallow="tram rail_urban rail rail_electric ship" speed="27.78" length="8.42" shape="2318.01,1483.86 2315.54,1484.37 2314.00,1485.48 2312.46,1486.57 2309.99,1487.07"/>
        <lane id=":4356268116_0_1" index="1" disallow="tram rail_urban rail rail_electric ship" speed="27.78" length="8.42" shape="2318.01,1483.86 2310.00,1483.87"/>
    </edge>
    <edge id=":4356268116_2" function="internal">
        <lane id=":4356268116_2_0" index="0" disallow="tram rail_urban rail rail_electric ship" speed="3.65" length="2.34" shape="2318.01,1483.86 2316.81,1483.07 2316.40,1482.27"/>
    </edge>
    <edge id=":4356268116_6" function="internal">
        <lane id=":4356268116_6_0" index="0" disallow="tram rail_urban rail rail_electric ship" speed="3.65" length="2.34" shape="2316.40,1482.27 2316.80,1481.47 2318.00,1480.66"/>
    </edge>
    <edge id=":4356268116_3" function="internal">
        <lane id=":4356268116_3_0" index="0" disallow="tram rail_urban rail rail_electric ship" speed="27.78" length="8.38" shape="2310.01,1480.67 2312.46,1480.17 2314.00,1479.08 2315.53,1477.97 2317.98,1477.46"/>
        <lane id=":4356268116_3_1" index="1" disallow="tram rail_urban rail rail_electric ship" speed="27.78" length="8.38" shape="2310.01,1480.67 2318.00,1480.66"/>
    </edge>
    <edge id=":4356268116_5" function="internal">
        <lane id=":4356268116_5_0" index="0" disallow="tram rail_urban rail rail_electric ship" speed="3.65" length="2.34" shape="2310.01,1480.67 2311.21,1481.47 2311.61,1482.27"/>
    </edge>
    <edge id=":4356268116_7" function="internal">
        <lane id=":4356268116_7_0" index="0" disallow="tram rail_urban rail rail_electric ship" speed="3.65" length="2.34" shape="2311.61,1482.27 2311.20,1483.07 2310.00,1483.87"/>
    </edge>
    <edge id=":4356268117_0" function="internal">
        <lane id=":4356268117_0_0" index="0" disallow="tram rail_urban rail rail_electric ship" speed="27.78" length="8.34" shape="2185.98,1482.58 2183.54,1483.04 2182.01,1484.12 2180.48,1485.21 2178.04,1485.72"/>
        <lane id=":4356268117_0_1" index="1" disallow="tram rail_urban rail rail_electric ship" speed="27.78" length="8.34" shape="2185.98,1482.58 2178.03,1482.52"/>
    </edge>
    <edge id=":4356268117_2" function="internal">
        <lane id=":4356268117_2_0" index="0" disallow="tram rail_urban rail rail_electric ship" speed="3.65" length="2.34" shape="2185.98,1482.58 2184.79,1481.76 2184.41,1480.95"/>
    </edge>
    <edge id=":4356268117_6" function="internal">
        <lane id=":4356268117_6_0" index="0" disallow="tram rail_urban rail rail_electric ship" speed="3.65" length="2.34" shape="2184.41,1480.95 2184.82,1480.16 2186.03,1479.38"/>
    </edge>
    <edge id=":4356268117_3" function="internal">
        <lane id=":4356268117_3_0" index="0" disallow="tram rail_urban rail rail_electric ship" speed="27.78" length="8.43" shape="2178.02,1479.32 2180.50,1478.81 2182.06,1477.72 2183.61,1476.64 2186.09,1476.18"/>
        <lane id=":4356268117_3_1" index="1" disallow="tram rail_urban rail rail_electric ship" speed="27.78" length="8.43" shape="2178.02,1479.32 2186.03,1479.38"/>
    </edge>
    <edge id=":4356268117_5" function="internal">
        <lane id=":4356268117_5_0" index="0" disallow="tram rail_urban rail rail_electric ship" speed="3.65" length="2.34" shape="2178.02,1479.32 2179.22,1480.12 2179.63,1480.92"/>
    </edge>
    <edge id=":4356268117_7" function="internal">
        <lane id=":4356268117_7_0" index="0" disallow="tram rail_urban rail rail_electric ship" speed="3.65" length="2.34" shape="2179.63,1480.92 2179.23,1481.72 2178.03,1482.52"/>
    </edge>
    <edge id=":4356268118_0" function="internal">
        <lane id=":4356268118_0_0" index="0" disallow="tram rail_urban rail rail_electric ship" speed="27.78" length="8.39" shape="2074.84,1482.21 2072.38,1482.68 2070.84,1483.77 2069.30,1484.86 2066.84,1485.36"/>
        <lane id=":4356268118_0_1" index="1" disallow="tram rail_urban rail rail_electric ship" speed="27.78" length="8.39" shape="2074.84,1482.21 2066.85,1482.16"/>
    </edge>
    <edge id=":4356268118_2" function="internal">
        <lane id=":4356268118_2_0" index="0" disallow="tram rail_urban rail rail_electric ship" speed="3.65" length="2.34" shape="2074.84,1482.21 2073.65,1481.39 2073.25,1480.59"/>
    </edge>
    <edge id=":4356268118_6" function="internal">
        <lane id=":4356268118_6_0" index="0" disallow="tram rail_urban rail rail_electric ship" speed="3.65" length="2.34" shape="2073.25,1480.59 2073.66,1479.79 2074.87,1479.01"/>
    </edge>
    <edge id=":4356268118_3" function="internal">
        <lane id=":4356268118_3_0" index="0" disallow="tram rail_urban rail rail_electric ship" speed="27.78" length="8.41" shape="2066.86,1478.96 2069.33,1478.46 2070.88,1477.37 2072.43,1476.28 2074.90,1475.81"/>
        <lane id=":4356268118_3_1" index="1" disallow="tram rail_urban rail rail_electric ship" speed="27.78" length="8.41" shape="2066.86,1478.96 2074.87,1479.01"/>
    </edge>
    <edge id=":4356268118_5" function="internal">
        <lane id=":4356268118_5_0" index="0" disallow="tram rail_urban rail rail_electric ship" speed="3.65" length="2.34" shape="2066.86,1478.96 2068.06,1479.76 2068.46,1480.56"/>
    </edge>
    <edge id=":4356268118_7" function="internal">
        <lane id=":4356268118_7_0" index="0" disallow="tram rail_urban rail rail_electric ship" speed="3.65" length="2.34" shape="2068.46,1480.56 2068.05,1481.36 2066.85,1482.16"/>
    </edge>
    <edge id=":4356268119_0" function="internal">
        <lane id=":4356268119_0_0" index="0" disallow="tram rail_urban rail rail_electric ship" speed="27.78" length="8.40" shape="1957.49,1481.58 1955.02,1482.06 1953.47,1483.15 1951.93,1484.24 1949.46,1484.72"/>
        <lane id=":4356268119_0_1" index="1" disallow="tram rail_urban rail rail_electric ship" speed="27.78" length="8.40" shape="1957.49,1481.58 1949.49,1481.52"/>
    </edge>
    <edge id=":4356268119_2" function="internal">
        <lane id=":4356268119_2_0" index="0" disallow="tram rail_urban rail rail_electric ship" speed="3.65" length="2.34" shape="1957.49,1481.58 1956.29,1480.77 1955.90,1479.97"/>
    </edge>
    <edge id=":4356268119_6" function="internal">
        <lane id=":4356268119_6_0" index="0" disallow="tram rail_urban rail rail_electric ship" speed="3.65" length="2.34" shape="1955.90,1479.97 1956.31,1479.17 1957.51,1478.38"/>
    </edge>
    <edge id=":4356268119_3" function="internal">
        <lane id=":4356268119_3_0" index="0" disallow="tram rail_urban rail rail_electric ship" speed="27.78" length="8.40" shape="1949.51,1478.32 1951.98,1477.84 1953.52,1476.75 1955.07,1475.66 1957.53,1475.18"/>
        <lane id=":4356268119_3_1" index="1" disallow="tram rail_urban rail rail_electric ship" speed="27.78" length="8.40" shape="1949.51,1478.32 1957.51,1478.38"/>
    </edge>
    <edge id=":4356268119_5" function="internal">
        <lane id=":4356268119_5_0" index="0" disallow="tram rail_urban rail rail_electric ship" speed="3.65" length="2.34" shape="1949.51,1478.32 1950.71,1479.13 1951.10,1479.93"/>
    </edge>
    <edge id=":4356268119_7" function="internal">
        <lane id=":4356268119_7_0" index="0" disallow="tram rail_urban rail rail_electric ship" speed="3.65" length="2.34" shape="1951.10,1479.93 1950.69,1480.73 1949.49,1481.52"/>
    </edge>
    <edge id=":4356268120_0" function="internal">
        <lane id=":4356268120_0_0" index="0" disallow="tram rail_urban rail rail_electric ship" speed="27.78" length="8.40" shape="1841.90,1480.95 1839.44,1481.44 1837.90,1482.54 1836.36,1483.64 1833.90,1484.14"/>
        <lane id=":4356268120_0_1" index="1" disallow="tram rail_urban rail rail_electric ship" speed="27.78" length="8.40" shape="1841.90,1480.95 1833.90,1480.94"/>
    </edge>
    <edge id=":4356268120_2" function="internal">
        <lane id=":4356268120_2_0" index="0" disallow="tram rail_urban rail rail_electric ship" speed="3.65" length="2.34" shape="1841.90,1480.95 1840.70,1480.15 1840.30,1479.35"/>
    </edge>
    <edge id=":4356268120_6" function="internal">
        <lane id=":4356268120_6_0" index="0" disallow="tram rail_urban rail rail_electric ship" speed="3.65" length="2.34" shape="1840.30,1479.35 1840.70,1478.55 1841.91,1477.75"/>
    </edge>
    <edge id=":4356268120_3" function="internal">
        <lane id=":4356268120_3_0" index="0" disallow="tram rail_urban rail rail_electric ship" speed="27.78" length="8.41" shape="1833.90,1477.74 1836.37,1477.24 1837.91,1476.14 1839.45,1475.04 1841.91,1474.55"/>
        <lane id=":4356268120_3_1" index="1" disallow="tram rail_urban rail rail_electric ship" speed="27.78" length="8.41" shape="1833.90,1477.74 1841.91,1477.75"/>
    </edge>
    <edge id=":4356268120_5" function="internal">
        <lane id=":4356268120_5_0" index="0" disallow="tram rail_urban rail rail_electric ship" speed="3.65" length="2.34" shape="1833.90,1477.74 1835.10,1478.54 1835.50,1479.34"/>
    </edge>
    <edge id=":4356268120_7" function="internal">
        <lane id=":4356268120_7_0" index="0" disallow="tram rail_urban rail rail_electric ship" speed="3.65" length="2.34" shape="1835.50,1479.34 1835.10,1480.14 1833.90,1480.94"/>
    </edge>
    <edge id=":4356268121_0" function="internal">
        <lane id=":4356268121_0_0" index="0" disallow="tram rail_urban rail rail_electric ship" speed="27.78" length="8.40" shape="1726.29,1480.27 1723.82,1480.74 1722.27,1481.82 1720.72,1482.90 1718.25,1483.37"/>
        <lane id=":4356268121_0_1" index="1" disallow="tram rail_urban rail rail_electric ship" speed="27.78" length="8.40" shape="1726.29,1480.27 1718.29,1480.17"/>
    </edge>
    <edge id=":4356268121_2" function="internal">
        <lane id=":4356268121_2_0" index="0" disallow="tram rail_urban rail rail_electric ship" speed="3.65" length="2.34" shape="1726.29,1480.27 1725.10,1479.46 1724.71,1478.65"/>
    </edge>
    <edge id=":4356268121_6" function="internal">
        <lane id=":4356268121_6_0" index="0" disallow="tram rail_urban rail rail_electric ship" speed="3.65" length="2.34" shape="1724.71,1478.65 1725.12,1477.86 1726.33,1477.07"/>
    </edge>
    <edge id=":4356268121_3" function="internal">
        <lane id=":4356268121_3_0" index="0" disallow="tram rail_urban rail rail_electric ship" speed="27.78" length="8.40" shape="1718.33,1476.97 1720.80,1476.50 1722.35,1475.42 1723.90,1474.34 1726.37,1473.87"/>
        <lane id=":4356268121_3_1" index="1" disallow="tram rail_urban rail rail_electric ship" speed="27.78" length="8.40" shape="1718.33,1476.97 1726.33,1477.07"/>
    </edge>
    <edge id=":4356268121_5" function="internal">
        <lane id=":4356268121_5_0" index="0" disallow="tram rail_urban rail rail_electric ship" speed="3.65" length="2.34" shape="1718.33,1476.97 1719.52,1477.79 1719.91,1478.59"/>
    </edge>
    <edge id=":4356268121_7" function="internal">
        <lane id=":4356268121_7_0" index="0" disallow="tram rail_urban rail rail_electric ship" speed="3.65" length="2.34" shape="1719.91,1478.59 1719.50,1479.39 1718.29,1480.17"/>
    </edge>
    <edge id=":4356268122_0" function="internal">
        <lane id=":4356268122_0_0" index="0" disallow="tram rail_urban rail rail_electric ship" speed="27.78" length="9.23" shape="1499.68,1479.49 1497.04,1480.51 1495.72,1482.72 1494.37,1484.92 1491.66,1485.91"/>
        <lane id=":4356268122_0_1" index="1" disallow="tram rail_urban rail rail_electric ship" speed="27.78" length="9.23" shape="1499.68,1479.49 1497.22,1480.01 1495.67,1481.12 1494.13,1482.21 1491.67,1482.71"/>
        <lane id=":4356268122_0_2" index="2" disallow="tram rail_urban rail rail_electric ship" speed="27.78" length="9.23" shape="1499.68,1479.49 1491.68,1479.51"/>
    </edge>
    <edge id=":4356268122_3" function="internal">
        <lane id=":4356268122_3_0" index="0" disallow="tram rail_urban rail rail_electric ship" speed="3.65" length="2.34" shape="1499.68,1479.49 1498.48,1478.70 1498.07,1477.90"/>
    </edge>
    <edge id=":4356268122_7" function="internal">
        <lane id=":4356268122_7_0" index="0" disallow="tram rail_urban rail rail_electric ship" speed="3.65" length="2.34" shape="1498.07,1477.90 1498.47,1477.10 1499.66,1476.29"/>
    </edge>
    <edge id=":4356268122_4" function="internal">
        <lane id=":4356268122_4_0" index="0" disallow="tram rail_urban rail rail_electric ship" speed="27.78" length="8.37" shape="1491.69,1476.31 1494.14,1475.81 1495.66,1474.72 1497.19,1473.61 1499.64,1473.09"/>
        <lane id=":4356268122_4_1" index="1" disallow="tram rail_urban rail rail_electric ship" speed="27.78" length="8.37" shape="1491.69,1476.31 1499.66,1476.29"/>
    </edge>
    <edge id=":4356268122_6" function="internal">
        <lane id=":4356268122_6_0" index="0" disallow="tram rail_urban rail rail_electric ship" speed="3.65" length="2.34" shape="1491.69,1476.31 1492.89,1477.11 1493.28,1477.91"/>
    </edge>
    <edge id=":4356268122_8" function="internal">
        <lane id=":4356268122_8_0" index="0" disallow="tram rail_urban rail rail_electric ship" speed="3.65" length="2.34" shape="1493.28,1477.91 1492.88,1478.71 1491.68,1479.51"/>
    </edge>
    <edge id=":4356268124_0" function="internal">
        <lane id=":4356268124_0_0" index="0" disallow="tram rail_urban rail rail_electric ship" speed="3.65" length="4.67" shape="932.15,1475.73 930.96,1474.92 930.56,1474.12 930.96,1473.32 932.17,1472.53"/>
    </edge>
    <edge id=":4356268132_0" function="internal">