<?xml version="1.0" encoding="UTF-8"?>

<!-- generated on 6/24/2016 9:23:42 PM by Netedit Version 0.25.0
<?xml version="1.0" encoding="UTF-8"?>

<configuration xmlns:xsi="http://www.w3.org/2001/XMLSchema-instance" xsi:noNamespaceSchemaLocation="http://sumo.dlr.de/xsd/netedit.exeConfiguration.xsd">

    <output>
        <output-file value="C:\Users\csy\Desktop\SUMO%20test\test_parking.net.xml"/>
    </output>

    <processing>
        <no-turnarounds value="true"/>
        <offset.disable-normalization value="true"/>
    </processing>

</configuration>
-->

<net version="0.25" xmlns:xsi="http://www.w3.org/2001/XMLSchema-instance" xsi:noNamespaceSchemaLocation="http://sumo.dlr.de/xsd/net_file.xsd">

    <location netOffset="0.00,0.00" convBoundary="0.00,0.00,1000.00,0.00" origBoundary="10000000000.00,10000000000.00,-10000000000.00,-10000000000.00" projParameter="!"/>

    <edge id="parking" from="park0" to="park1" priority="1">
        <lane id="parking_0" index="0" speed="30.00" length="1000.00" shape="0.00,-1.65 1000.00,-1.65"/>
    </edge>

    <junction id="park0" type="unregulated" x="0.00" y="0.00" incLanes="" intLanes="" shape="0.00,-0.05 0.00,-3.25"/>
    <junction id="park1" type="unregulated" x="1000.00" y="0.00" incLanes="parking_0" intLanes="" shape="1000.00,-3.25 1000.00,-0.05"/>

</net>
