<?xml version="1.0" encoding="UTF-8"?>

<additional xmlns:xsi="http://www.w3.org/2001/XMLSchema-instance" xsi:noNamespaceSchemaLocation="http://sumo.dlr.de/xsd/additional_file.xsd">
    <edgeData id="1" file="../results/case_3/0.2_parking/edgedata_traffic.xml"/>
    <edgeData id="2" type="emissions" file="../results/case_3/0.2_parking/edgedata_emission.xml"/>
    <edgeData id="3" type="harmonoise" file="../results/case_3/0.2_parking/edgedata_noise.xml"/>
</additional>
