<?xml version="1.0" encoding="UTF-8"?>

<!-- generated on Sat Jun 22 00:31:53 2019 by Eclipse SUMO netedit Version 1.1.0
<configuration xmlns:xsi="http://www.w3.org/2001/XMLSchema-instance" xsi:noNamespaceSchemaLocation="http://sumo.dlr.de/xsd/netconvertConfiguration.xsd">

    <input>
        <sumo-net-file value="/Users/Gursewak/Desktop/sumo/sfpark/san_francisco_update.net.xml"/>
    </input>

    <output>
        <output-file value="/Users/Gursewak/Desktop/sumo/sfpark/san_francisco_update.net.xml"/>
    </output>

    <processing>
        <geometry.max-grade.fix value="false"/>
        <offset.disable-normalization value="true"/>
        <lefthand value="false"/>
    </processing>

    <junctions>
        <no-internal-links value="true"/>
        <no-turnarounds value="true"/>
        <junctions.corner-detail value="0"/>
        <junctions.limit-turn-speed value="-1"/>
        <rectangular-lane-cut value="false"/>
    </junctions>

    <pedestrian>
        <walkingareas value="false"/>
    </pedestrian>

</configuration>
-->

<additional xmlns:xsi="http://www.w3.org/2001/XMLSchema-instance" xsi:noNamespaceSchemaLocation="http://sumo.dlr.de/xsd/additional_file.xsd">
    <parkingArea id="parkingArea_-100400946_0_293" lane="-100400946_0" roadsideCapacity="80" startPos="72.04" endPos="77.04"/>
    <parkingArea id="parkingArea_-111089307#4_0_200" lane="-111089307#4_0" roadsideCapacity="109" startPos="90.59" endPos="95.59"/>
    <parkingArea id="parkingArea_-111550911#2_0_98" lane="-111550911#2_0" roadsideCapacity="371" startPos="50.10" endPos="55.10"/>
    <parkingArea id="parkingArea_-111560681#2_0_153" lane="-111560681#2_0" roadsideCapacity="18" startPos="86.55" endPos="96.55"/>
    <parkingArea id="parkingArea_-111586254#3_0_269" lane="-111586254#3_0" roadsideCapacity="300" startPos="62.44" endPos="67.44"/>
    <parkingArea id="parkingArea_-133755923#0_0_161" lane="-133755923#0_0" roadsideCapacity="37" startPos="138.20" endPos="148.20"/>
    <parkingArea id="parkingArea_-133781759#1_0_346" lane="-133781759#1_0" roadsideCapacity="843" startPos="31.31" endPos="36.31"/>
    <parkingArea id="parkingArea_-141688972#1_0_145" lane="-141688972#1_0" roadsideCapacity="220" startPos="125.11" endPos="130.11"/>
    <parkingArea id="parkingArea_-141688972#2_0_130" lane="-141688972#2_0" roadsideCapacity="146" startPos="140.86" endPos="145.86"/>
    <parkingArea id="parkingArea_-143617587_0_133" lane="-143617587_0" roadsideCapacity="140" startPos="134.84" endPos="139.84"/>
    <parkingArea id="parkingArea_-143666209#2_0_12" lane="-143666209#2_0" roadsideCapacity="48" startPos="23.11" endPos="28.11"/>
    <parkingArea id="parkingArea_-144346316#4_0_339" lane="-144346316#4_0" roadsideCapacity="50" startPos="73.60" endPos="78.60"/>
    <parkingArea id="parkingArea_-144346316#5_0_340" lane="-144346316#5_0" roadsideCapacity="22" startPos="79.82" endPos="84.82"/>
    <parkingArea id="parkingArea_-148846997#1_0_283" lane="-148846997#1_0" roadsideCapacity="75" startPos="64.90" endPos="69.90"/>
    <parkingArea id="parkingArea_-148847001#5_0_26" lane="-148847001#5_0" roadsideCapacity="200" startPos="45.87" endPos="50.87"/>
    <parkingArea id="parkingArea_-148847001#8_0_30" lane="-148847001#8_0" roadsideCapacity="65" startPos="40.76" endPos="45.76"/>
    <parkingArea id="parkingArea_-174822357#1_0_95" lane="-174822357#1_0" roadsideCapacity="50" startPos="47.08" endPos="52.08"/>
    <parkingArea id="parkingArea_-191296172#0_0_201" lane="-191296172#0_0" roadsideCapacity="56" startPos="71.86" endPos="76.86"/>
    <parkingArea id="parkingArea_-204963504_0_187" lane="-204963504_0" roadsideCapacity="291" startPos="72.77" endPos="77.77"/>
    <parkingArea id="parkingArea_-224384018_0_73" lane="-224384018_0" roadsideCapacity="405" startPos="126.73" endPos="131.73"/>
    <parkingArea id="parkingArea_-225432462#1_0_61" lane="-225432462#1_0" roadsideCapacity="40" startPos="54.89" endPos="59.89"/>
    <parkingArea id="parkingArea_-225518512#1_0_109" lane="-225518512#1_0" roadsideCapacity="120" startPos="78.76" endPos="83.76"/>
    <parkingArea id="parkingArea_-225847526_0_176" lane="-225847526_0" roadsideCapacity="80" startPos="121.50" endPos="131.50"/>
    <parkingArea id="parkingArea_-228186482#1_0_69" lane="-228186482#1_0" roadsideCapacity="246" startPos="46.71" endPos="51.71"/>
    <parkingArea id="parkingArea_-228201785#0_0_110" lane="-228201785#0_0" roadsideCapacity="300" startPos="27.34" endPos="32.34"/>
    <parkingArea id="parkingArea_-23924510#0_0_37" lane="-23924510#0_0" roadsideCapacity="60" startPos="61.41" endPos="66.41"/>
    <parkingArea id="parkingArea_-24310636#2_0_202" lane="-24310636#2_0" roadsideCapacity="9" startPos="56.91" endPos="61.91"/>
    <parkingArea id="parkingArea_-247966218#2_0_167" lane="-247966218#2_0" roadsideCapacity="174" startPos="129.08" endPos="139.08"/>
    <parkingArea id="parkingArea_-247966218#7_0_160" lane="-247966218#7_0" roadsideCapacity="23" startPos="31.84" endPos="41.84"/>
    <parkingArea id="parkingArea_-254299113#0_0_11" lane="-254299113#0_0" roadsideCapacity="39" startPos="79.42" endPos="84.42"/>
    <parkingArea id="parkingArea_-254308553_0_144" lane="-254308553_0" roadsideCapacity="150" startPos="90.43" endPos="95.43"/>
    <parkingArea id="parkingArea_-254396719#1_0_246" lane="-254396719#1_0" roadsideCapacity="76" startPos="52.41" endPos="57.41"/>
    <parkingArea id="parkingArea_-254466686#3_0_243" lane="-254466686#3_0" roadsideCapacity="45" startPos="56.25" endPos="61.25"/>
    <parkingArea id="parkingArea_-254466686#4_0_245" lane="-254466686#4_0" roadsideCapacity="180" startPos="52.12" endPos="57.12"/>
    <parkingArea id="parkingArea_-254756526#1_0_233" lane="-254756526#1_0" roadsideCapacity="210" startPos="53.44" endPos="58.44"/>
    <parkingArea id="parkingArea_-254758120#1_0_313" lane="-254758120#1_0" roadsideCapacity="25" startPos="68.05" endPos="73.05"/>
    <parkingArea id="parkingArea_-255168048#2_0_9" lane="-255168048#2_0" roadsideCapacity="193" startPos="70.12" endPos="75.12"/>
    <parkingArea id="parkingArea_-255168048#3_0_16" lane="-255168048#3_0" roadsideCapacity="101" startPos="72.02" endPos="77.02"/>
    <parkingArea id="parkingArea_-255168048#4_0_18" lane="-255168048#4_0" roadsideCapacity="73" startPos="61.29" endPos="66.29"/>
    <parkingArea id="parkingArea_-255330036#11_0_91" lane="-255330036#11_0" roadsideCapacity="5" startPos="28.00" endPos="33.00"/>
    <parkingArea id="parkingArea_-255330036#12_0_93" lane="-255330036#12_0" roadsideCapacity="240" startPos="90.55" endPos="95.55"/>
    <parkingArea id="parkingArea_-255330036#3_0_119" lane="-255330036#3_0" roadsideCapacity="238" startPos="9.37" endPos="14.37"/>
    <parkingArea id="parkingArea_-263819574#1_0_210" lane="-263819574#1_0" roadsideCapacity="70" startPos="71.29" endPos="76.29"/>
    <parkingArea id="parkingArea_-264874017#4_0_140" lane="-264874017#4_0" roadsideCapacity="79" startPos="21.19" endPos="26.19"/>
    <parkingArea id="parkingArea_-26938155#4_0_209" lane="-26938155#4_0" roadsideCapacity="65" startPos="58.18" endPos="63.18"/>
    <parkingArea id="parkingArea_-26943758#1_0_185" lane="-26943758#1_0" roadsideCapacity="115" startPos="87.58" endPos="92.58"/>
    <parkingArea id="parkingArea_-27166421#2_0_296" lane="-27166421#2_0" roadsideCapacity="132" startPos="52.86" endPos="57.86"/>
    <parkingArea id="parkingArea_-27167281#1_0_163" lane="-27167281#1_0" roadsideCapacity="472" startPos="90.00" endPos="100.00"/>
    <parkingArea id="parkingArea_-27570786#2_0_23" lane="-27570786#2_0" roadsideCapacity="120" startPos="55.33" endPos="60.33"/>
    <parkingArea id="parkingArea_-27571801_0_50" lane="-27571801_0" roadsideCapacity="450" startPos="54.67" endPos="59.67"/>
    <parkingArea id="parkingArea_-28231602#5_0_221" lane="-28231602#5_0" roadsideCapacity="90" startPos="51.33" endPos="56.33"/>
    <parkingArea id="parkingArea_-283537552#1_0_87" lane="-283537552#1_0" roadsideCapacity="25" startPos="58.85" endPos="63.85"/>
    <parkingArea id="parkingArea_-283537644#1_0_86" lane="-283537644#1_0" roadsideCapacity="28" startPos="29.59" endPos="34.59"/>
    <parkingArea id="parkingArea_-28518571#0_0_166" lane="-28518571#0_0" roadsideCapacity="24" startPos="51.55" endPos="61.55"/>
    <parkingArea id="parkingArea_-287958606#1_0_355" lane="-287958606#1_0" roadsideCapacity="500" startPos="69.30" endPos="74.30"/>
    <parkingArea id="parkingArea_-28805009#4_0_276" lane="-28805009#4_0" roadsideCapacity="162" startPos="11.86" endPos="16.86"/>
    <parkingArea id="parkingArea_-28841114#2_0_280" lane="-28841114#2_0" roadsideCapacity="22" startPos="20.21" endPos="25.21"/>
    <parkingArea id="parkingArea_-30029721#1_0_35" lane="-30029721#1_0" roadsideCapacity="13" startPos="21.86" endPos="26.86"/>
    <parkingArea id="parkingArea_-30029846#0_0_354" lane="-30029846#0_0" roadsideCapacity="21" startPos="64.21" endPos="69.21"/>
    <parkingArea id="parkingArea_-30030283#0_0_279" lane="-30030283#0_0" roadsideCapacity="22" startPos="72.39" endPos="77.39"/>
    <parkingArea id="parkingArea_-30831816#3_0_24" lane="-30831816#3_0" roadsideCapacity="980" startPos="61.97" endPos="66.97"/>
    <parkingArea id="parkingArea_-30832489_0_334" lane="-30832489_0" roadsideCapacity="43" startPos="75.12" endPos="80.12"/>
    <parkingArea id="parkingArea_-34128712_0_14" lane="-34128712_0" roadsideCapacity="23" startPos="72.49" endPos="77.49"/>
    <parkingArea id="parkingArea_-36331312#0_0_158" lane="-36331312#0_0" roadsideCapacity="160" startPos="96.67" endPos="106.67"/>
    <parkingArea id="parkingArea_-7373736#0_0_147" lane="-7373736#0_0" roadsideCapacity="48" startPos="135.37" endPos="140.37"/>
    <parkingArea id="parkingArea_-7373736#1_0_131" lane="-7373736#1_0" roadsideCapacity="120" startPos="150.66" endPos="155.66"/>
    <parkingArea id="parkingArea_-84823308_0_162" lane="-84823308_0" roadsideCapacity="689" startPos="139.19" endPos="149.19"/>
    <parkingArea id="parkingArea_-87297164#4_0_288" lane="-87297164#4_0" roadsideCapacity="20" startPos="20.54" endPos="25.54"/>
    <parkingArea id="parkingArea_-88559691#3_0_75" lane="-88559691#3_0" roadsideCapacity="170" startPos="84.44" endPos="89.44"/>
    <parkingArea id="parkingArea_-88559691#6_0_82" lane="-88559691#6_0" roadsideCapacity="21" startPos="86.42" endPos="91.42"/>
    <parkingArea id="parkingArea_-88572874#2_0_188" lane="-88572874#2_0" roadsideCapacity="26" startPos="25.28" endPos="30.28"/>
    <parkingArea id="parkingArea_-88572877#6_0_76" lane="-88572877#6_0" roadsideCapacity="100" startPos="133.54" endPos="138.54"/>
    <parkingArea id="parkingArea_-88572887#0_0_180" lane="-88572887#0_0" roadsideCapacity="62" startPos="37.17" endPos="42.17"/>
    <parkingArea id="parkingArea_-88572914#2_0_174" lane="-88572914#2_0" roadsideCapacity="195" startPos="149.28" endPos="159.28"/>
    <parkingArea id="parkingArea_-88572932#2_0_136" lane="-88572932#2_0" roadsideCapacity="143" startPos="130.45" endPos="135.45"/>
    <parkingArea id="parkingArea_-88572941_0_150" lane="-88572941_0" roadsideCapacity="60" startPos="136.51" endPos="146.51"/>
    <parkingArea id="parkingArea_-88572970_0_67" lane="-88572970_0" roadsideCapacity="110" startPos="54.60" endPos="59.60"/>
    <parkingArea id="parkingArea_-8916563#1_0_222" lane="-8916563#1_0" roadsideCapacity="120" startPos="55.02" endPos="60.02"/>
    <parkingArea id="parkingArea_-8916563#4_0_219" lane="-8916563#4_0" roadsideCapacity="24" startPos="49.49" endPos="54.49"/>
    <parkingArea id="parkingArea_-8916765#1_0_33" lane="-8916765#1_0" roadsideCapacity="400" startPos="39.79" endPos="44.79"/>
    <parkingArea id="parkingArea_-8916922#4_0_52" lane="-8916922#4_0" roadsideCapacity="605" startPos="59.05" endPos="64.05"/>
    <parkingArea id="parkingArea_-8916930_0_191" lane="-8916930_0" roadsideCapacity="105" startPos="34.46" endPos="39.46"/>
    <parkingArea id="parkingArea_-8920242#0_0_115" lane="-8920242#0_0" roadsideCapacity="150" startPos="23.20" endPos="28.20"/>
    <parkingArea id="parkingArea_-8920734_0_356" lane="-8920734_0" roadsideCapacity="86" startPos="45.85" endPos="50.85"/>
    <parkingArea id="parkingArea_-8922024#5_0_224" lane="-8922024#5_0" roadsideCapacity="60" startPos="52.70" endPos="57.70"/>
    <parkingArea id="parkingArea_-8922307_0_63" lane="-8922307_0" roadsideCapacity="24" startPos="93.27" endPos="98.27"/>
    <parkingArea id="parkingArea_-8922640#1_0_252" lane="-8922640#1_0" roadsideCapacity="125" startPos="34.86" endPos="44.86"/>
    <parkingArea id="parkingArea_-91181760#0_0_294" lane="-91181760#0_0" roadsideCapacity="225" startPos="31.48" endPos="36.48"/>
    <parkingArea id="parkingArea_-p1#1_0_330" lane="-p1#1_0" roadsideCapacity="925" startPos="29.78" endPos="34.78"/>
    <parkingArea id="parkingArea_-p2#3_0_126" lane="-p2#3_0" roadsideCapacity="2585" startPos="24.98" endPos="29.98"/>
    <parkingArea id="parkingArea_-p4#0_0_102" lane="-p4#0_0" roadsideCapacity="752" startPos="19.06" endPos="24.06"/>
    <parkingArea id="parkingArea_100400942#1_0_276" lane="100400942#1_0" roadsideCapacity="30" startPos="47.93" endPos="52.93"/>
    <parkingArea id="parkingArea_100400947#7_0_311" lane="100400947#7_0" roadsideCapacity="100" startPos="77.14" endPos="82.14"/>
    <parkingArea id="parkingArea_111049100#0_0_64" lane="111049100#0_0" roadsideCapacity="25" startPos="58.55" endPos="63.55"/>
    <parkingArea id="parkingArea_111050389#11_0_183" lane="111050389#11_0" roadsideCapacity="44" startPos="20.79" endPos="25.79"/>
    <parkingArea id="parkingArea_111050389#6_0_170" lane="111050389#6_0" roadsideCapacity="28" startPos="88.73" endPos="98.73"/>
    <parkingArea id="parkingArea_111319423_0_83" lane="111319423_0" roadsideCapacity="120" startPos="137.22" endPos="142.22"/>
    <parkingArea id="parkingArea_111550911#2_0_97" lane="111550911#2_0" roadsideCapacity="315" startPos="17.22" endPos="22.22"/>
    <parkingArea id="parkingArea_111552058#0_0_101" lane="111552058#0_0" roadsideCapacity="798" startPos="75.93" endPos="80.93"/>
    <parkingArea id="parkingArea_111560679#0_0_111" lane="111560679#0_0" roadsideCapacity="685" startPos="134.75" endPos="139.75"/>
    <parkingArea id="parkingArea_120256350#0_0_51" lane="120256350#0_0" roadsideCapacity="182" startPos="93.55" endPos="98.55"/>
    <parkingArea id="parkingArea_120256350#3_0_52" lane="120256350#3_0" roadsideCapacity="308" startPos="96.99" endPos="101.99"/>
    <parkingArea id="parkingArea_120256350#8_0_45" lane="120256350#8_0" roadsideCapacity="417" startPos="93.60" endPos="98.60"/>
    <parkingArea id="parkingArea_120256351_0_49" lane="120256351_0" roadsideCapacity="98" startPos="98.65" endPos="103.65"/>
    <parkingArea id="parkingArea_123741454#0_0_155" lane="123741454#0_0" roadsideCapacity="105" startPos="347.13" endPos="357.13"/>
    <parkingArea id="parkingArea_123741454#2_0_109" lane="123741454#2_0" roadsideCapacity="20" startPos="776.51" endPos="781.51"/>
    <parkingArea id="parkingArea_123741465_0_169" lane="123741465_0" roadsideCapacity="62" startPos="109.30" endPos="119.30"/>
    <parkingArea id="parkingArea_133733593#1_0_357" lane="133733593#1_0" roadsideCapacity="160" startPos="80.91" endPos="85.91"/>
    <parkingArea id="parkingArea_133735130#0_0_120" lane="133735130#0_0" roadsideCapacity="25" startPos="100.97" endPos="105.97"/>
    <parkingArea id="parkingArea_133735130#4_0_118" lane="133735130#4_0" roadsideCapacity="40" startPos="25.22" endPos="30.22"/>
    <parkingArea id="parkingArea_141688972#1_0_146" lane="141688972#1_0" roadsideCapacity="36" startPos="131.71" endPos="136.71"/>
    <parkingArea id="parkingArea_143617589#2_0_121" lane="143617589#2_0" roadsideCapacity="152" startPos="27.21" endPos="32.21"/>
    <parkingArea id="parkingArea_143617593_0_143" lane="143617593_0" roadsideCapacity="140" startPos="90.35" endPos="95.35"/>
    <parkingArea id="parkingArea_143666206_0_5" lane="143666206_0" roadsideCapacity="199" startPos="61.57" endPos="66.57"/>
    <parkingArea id="parkingArea_143666208#0_0_6" lane="143666208#0_0" roadsideCapacity="109" startPos="47.17" endPos="52.17"/>
    <parkingArea id="parkingArea_144489134#3_0_270" lane="144489134#3_0" roadsideCapacity="985" startPos="68.27" endPos="73.27"/>
    <parkingArea id="parkingArea_144489137#7_0_324" lane="144489137#7_0" roadsideCapacity="100" startPos="67.55" endPos="72.55"/>
    <parkingArea id="parkingArea_148846995_0_284" lane="148846995_0" roadsideCapacity="23" startPos="33.41" endPos="38.41"/>
    <parkingArea id="parkingArea_148846996#1_0_282" lane="148846996#1_0" roadsideCapacity="18" startPos="60.66" endPos="65.66"/>
    <parkingArea id="parkingArea_148846998#0_0_285" lane="148846998#0_0" roadsideCapacity="10" startPos="12.65" endPos="17.65"/>
    <parkingArea id="parkingArea_157812260#10_0_172" lane="157812260#10_0" roadsideCapacity="125" startPos="102.95" endPos="112.95"/>
    <parkingArea id="parkingArea_157812260#11_0_151" lane="157812260#11_0" roadsideCapacity="110" startPos="100.92" endPos="110.92"/>
    <parkingArea id="parkingArea_157812260#9_0_172" lane="157812260#9_0" roadsideCapacity="22" startPos="34.68" endPos="44.68"/>
    <parkingArea id="parkingArea_160325575#0_0_47" lane="160325575#0_0" roadsideCapacity="160" startPos="86.99" endPos="91.99"/>
    <parkingArea id="parkingArea_162931810_0_184" lane="162931810_0" roadsideCapacity="378" startPos="94.90" endPos="99.90"/>
    <parkingArea id="parkingArea_186400365_0_129" lane="186400365_0" roadsideCapacity="36" startPos="146.79" endPos="151.79"/>
    <parkingArea id="parkingArea_186400366#1_0_190" lane="186400366#1_0" roadsideCapacity="150" startPos="40.86" endPos="45.86"/>
    <parkingArea id="parkingArea_186400366#9_0_168" lane="186400366#9_0" roadsideCapacity="50" startPos="40.50" endPos="50.50"/>
    <parkingArea id="parkingArea_196831123#2_0_29" lane="196831123#2_0" roadsideCapacity="237" startPos="69.44" endPos="74.44"/>
    <parkingArea id="parkingArea_202317711_0_70" lane="202317711_0" roadsideCapacity="50" startPos="44.46" endPos="49.46"/>
    <parkingArea id="parkingArea_206662304#13_0_290" lane="206662304#13_0" roadsideCapacity="85" startPos="154.30" endPos="159.30"/>
    <parkingArea id="parkingArea_214545530#0_0_139" lane="214545530#0_0" roadsideCapacity="310" startPos="100.07" endPos="105.07"/>
    <parkingArea id="parkingArea_214545530#4_0_141" lane="214545530#4_0" roadsideCapacity="50" startPos="36.93" endPos="41.93"/>
    <parkingArea id="parkingArea_224199018#1_0_236" lane="224199018#1_0" roadsideCapacity="676" startPos="38.98" endPos="43.98"/>
    <parkingArea id="parkingArea_224199018#2_0_235" lane="224199018#2_0" roadsideCapacity="664" startPos="48.65" endPos="53.65"/>
    <parkingArea id="parkingArea_224199018#3_0_234" lane="224199018#3_0" roadsideCapacity="568" startPos="48.29" endPos="53.29"/>
    <parkingArea id="parkingArea_224316514#0_0_261" lane="224316514#0_0" roadsideCapacity="150" startPos="76.69" endPos="86.69"/>
    <parkingArea id="parkingArea_224316520#0_0_356" lane="224316520#0_0" roadsideCapacity="650" startPos="15" endPos="20"/>
    <parkingArea id="parkingArea_224316521#1_0_356" lane="224316521#1_0" roadsideCapacity="700" startPos="51.00" endPos="56.00"/>
    <parkingArea id="parkingArea_224316521#3_0_354" lane="224316521#3_0" roadsideCapacity="279" startPos="53.06" endPos="58.06"/>
    <parkingArea id="parkingArea_224316522#0_0_265" lane="224316522#0_0" roadsideCapacity="12" startPos="62.62" endPos="72.62"/>
    <parkingArea id="parkingArea_224373751_0_54" lane="224373751_0" roadsideCapacity="285" startPos="92.15" endPos="97.15"/>
    <parkingArea id="parkingArea_224373753_0_53" lane="224373753_0" roadsideCapacity="160" startPos="48.54" endPos="53.54"/>
    <parkingArea id="parkingArea_224384010#1_0_218" lane="224384010#1_0" roadsideCapacity="100" startPos="50.66" endPos="55.66"/>
    <parkingArea id="parkingArea_224384020#2_0_208" lane="224384020#2_0" roadsideCapacity="110" startPos="72.50" endPos="77.50"/>
    <parkingArea id="parkingArea_224384020#8_0_266" lane="224384020#8_0" roadsideCapacity="110" startPos="149.57" endPos="159.57"/>
    <parkingArea id="parkingArea_224384028#0_0_212" lane="224384028#0_0" roadsideCapacity="250" startPos="52.59" endPos="57.59"/>
    <parkingArea id="parkingArea_224384035#1_0_357" lane="224384035#1_0" roadsideCapacity="50" startPos="136.53" endPos="141.53"/>
    <parkingArea id="parkingArea_225432462#0_0_60" lane="225432462#0_0" roadsideCapacity="118" startPos="49.26" endPos="54.26"/>
    <parkingArea id="parkingArea_225518502#0_0_84" lane="225518502#0_0" roadsideCapacity="358" startPos="61.25" endPos="66.25"/>
    <parkingArea id="parkingArea_225518502#3_0_85" lane="225518502#3_0" roadsideCapacity="15" startPos="66.26" endPos="71.26"/>
    <parkingArea id="parkingArea_225518512#0_0_107" lane="225518512#0_0" roadsideCapacity="150" startPos="88.79" endPos="93.79"/>
    <parkingArea id="parkingArea_225806031#0_0_350" lane="225806031#0_0" roadsideCapacity="20" startPos="69.79" endPos="74.79"/>
    <parkingArea id="parkingArea_225806056_0_125" lane="225806056_0" roadsideCapacity="82" startPos="103.24" endPos="108.24"/>
    <parkingArea id="parkingArea_225847514_0_314" lane="225847514_0" roadsideCapacity="30" startPos="68.46" endPos="73.46"/>
    <parkingArea id="parkingArea_225847519#1_0_349" lane="225847519#1_0" roadsideCapacity="401" startPos="33.31" endPos="38.31"/>
    <parkingArea id="parkingArea_225847519#4_0_348" lane="225847519#4_0" roadsideCapacity="307" startPos="69.96" endPos="74.96"/>
    <parkingArea id="parkingArea_225853133_0_347" lane="225853133_0" roadsideCapacity="12" startPos="66.72" endPos="71.72"/>
    <parkingArea id="parkingArea_228186482#0_0_71" lane="228186482#0_0" roadsideCapacity="340" startPos="52.05" endPos="57.05"/>
    <parkingArea id="parkingArea_23883761_0_165" lane="23883761_0" roadsideCapacity="325" startPos="102.98" endPos="112.98"/>
    <parkingArea id="parkingArea_23959829#1_0_198" lane="23959829#1_0" roadsideCapacity="25" startPos="59.25" endPos="64.25"/>
    <parkingArea id="parkingArea_24245395#1_0_211" lane="24245395#1_0" roadsideCapacity="130" startPos="57.17" endPos="62.17"/>
    <parkingArea id="parkingArea_24335441_0_197" lane="24335441_0" roadsideCapacity="130" startPos="66.59" endPos="71.59"/>
    <parkingArea id="parkingArea_24335487#1_0_278" lane="24335487#1_0" roadsideCapacity="70" startPos="53.49" endPos="58.49"/>
    <parkingArea id="parkingArea_24335487#2_0_281" lane="24335487#2_0" roadsideCapacity="65" startPos="53.43" endPos="58.43"/>
    <parkingArea id="parkingArea_25372358#0_0_204" lane="25372358#0_0" roadsideCapacity="39" startPos="47.28" endPos="52.28"/>
    <parkingArea id="parkingArea_254297759#0_0_262" lane="254297759#0_0" roadsideCapacity="65" startPos="52.92" endPos="62.92"/>
    <parkingArea id="parkingArea_254297761#0_0_303" lane="254297761#0_0" roadsideCapacity="160" startPos="56.99" endPos="61.99"/>
    <parkingArea id="parkingArea_254297761#2_0_305" lane="254297761#2_0" roadsideCapacity="184" startPos="54.10" endPos="59.10"/>
    <parkingArea id="parkingArea_254297763#0_0_297" lane="254297763#0_0" roadsideCapacity="207" startPos="74.58" endPos="79.58"/>
    <parkingArea id="parkingArea_254297763#4_0_337" lane="254297763#4_0" roadsideCapacity="55" startPos="72.55" endPos="77.55"/>
    <parkingArea id="parkingArea_254297763#6_0_342" lane="254297763#6_0" roadsideCapacity="105" startPos="70.36" endPos="75.36"/>
    <parkingArea id="parkingArea_254299112#1_0_28" lane="254299112#1_0" roadsideCapacity="150" startPos="33.31" endPos="38.31"/>
    <parkingArea id="parkingArea_254299112#2_0_27" lane="254299112#2_0" roadsideCapacity="284" startPos="66.56" endPos="71.56"/>
    <parkingArea id="parkingArea_254299113#0_0_10" lane="254299113#0_0" roadsideCapacity="353" startPos="63.13" endPos="68.13"/>
    <parkingArea id="parkingArea_254299113#3_0_355" lane="254299113#3_0" roadsideCapacity="150" startPos="82.41" endPos="87.41"/>
    <parkingArea id="parkingArea_254299125_0_8" lane="254299125_0" roadsideCapacity="365" startPos="66.07" endPos="71.07"/>
    <parkingArea id="parkingArea_254299142#2_0_116" lane="254299142#2_0" roadsideCapacity="60" startPos="35.25" endPos="40.25"/>
    <parkingArea id="parkingArea_254299142#3_0_103" lane="254299142#3_0" roadsideCapacity="363" startPos="85.97" endPos="90.97"/>
    <parkingArea id="parkingArea_254306572#0_0_247" lane="254306572#0_0" roadsideCapacity="150" startPos="67.41" endPos="72.41"/>
    <parkingArea id="parkingArea_254308548#0_0_142" lane="254308548#0_0" roadsideCapacity="82" startPos="114.32" endPos="119.32"/>
    <parkingArea id="parkingArea_254308553_0_157" lane="254308553_0" roadsideCapacity="150" startPos="86.52" endPos="96.52"/>
    <parkingArea id="parkingArea_254396707#7_0_341" lane="254396707#7_0" roadsideCapacity="178" startPos="74.10" endPos="79.10"/>
    <parkingArea id="parkingArea_254396707#8_0_338" lane="254396707#8_0" roadsideCapacity="100" startPos="73.43" endPos="78.43"/>
    <parkingArea id="parkingArea_254396710#1_0_239" lane="254396710#1_0" roadsideCapacity="250" startPos="44.89" endPos="49.89"/>
    <parkingArea id="parkingArea_254448248_0_333" lane="254448248_0" roadsideCapacity="39" startPos="49.09" endPos="54.09"/>
    <parkingArea id="parkingArea_254448250_0_323" lane="254448250_0" roadsideCapacity="140" startPos="53.08" endPos="58.08"/>
    <parkingArea id="parkingArea_254448252#0_0_345" lane="254448252#0_0" roadsideCapacity="30" startPos="66.54" endPos="71.54"/>
    <parkingArea id="parkingArea_254448252#1_0_351" lane="254448252#1_0" roadsideCapacity="25" startPos="75.42" endPos="80.42"/>
    <parkingArea id="parkingArea_254466686#0_0_241" lane="254466686#0_0" roadsideCapacity="35" startPos="51.88" endPos="56.88"/>
    <parkingArea id="parkingArea_254756525#15_0_292" lane="254756525#15_0" roadsideCapacity="250" startPos="71.23" endPos="76.23"/>
    <parkingArea id="parkingArea_254756525#25_0_354" lane="254756525#25_0" roadsideCapacity="138" startPos="219.60" endPos="224.60"/>
    <parkingArea id="parkingArea_254756525#3_0_352" lane="254756525#3_0" roadsideCapacity="70" startPos="71.34" endPos="76.34"/>
    <parkingArea id="parkingArea_254758114#0_0_299" lane="254758114#0_0" roadsideCapacity="21" startPos="75.55" endPos="80.55"/>
    <parkingArea id="parkingArea_254758115#0_0_310" lane="254758115#0_0" roadsideCapacity="50" startPos="68.00" endPos="73.00"/>
    <parkingArea id="parkingArea_254758120#1_0_312" lane="254758120#1_0" roadsideCapacity="15" startPos="45.81" endPos="50.81"/>
    <parkingArea id="parkingArea_254758120#3_0_353" lane="254758120#3_0" roadsideCapacity="14" startPos="81.45" endPos="86.45"/>
    <parkingArea id="parkingArea_254758124#0_0_300" lane="254758124#0_0" roadsideCapacity="150" startPos="58.58" endPos="63.58"/>
    <parkingArea id="parkingArea_254758124#6_0_325" lane="254758124#6_0" roadsideCapacity="30" startPos="47.19" endPos="52.19"/>
    <parkingArea id="parkingArea_254758126#4_0_301" lane="254758126#4_0" roadsideCapacity="90" startPos="52.72" endPos="57.72"/>
    <parkingArea id="parkingArea_254758128#0_0_329" lane="254758128#0_0" roadsideCapacity="500" startPos="52.10" endPos="57.10"/>
    <parkingArea id="parkingArea_254758131#2_0_327" lane="254758131#2_0" roadsideCapacity="732" startPos="70.88" endPos="75.88"/>
    <parkingArea id="parkingArea_254758132#0_0_328" lane="254758132#0_0" roadsideCapacity="70" startPos="36.33" endPos="41.33"/>
    <parkingArea id="parkingArea_254759927#0_0_317" lane="254759927#0_0" roadsideCapacity="120" startPos="57.01" endPos="62.01"/>
    <parkingArea id="parkingArea_254759928#0_0_332" lane="254759928#0_0" roadsideCapacity="400" startPos="70.30" endPos="75.30"/>
    <parkingArea id="parkingArea_254759928#2_0_316" lane="254759928#2_0" roadsideCapacity="29" startPos="11.51" endPos="16.51"/>
    <parkingArea id="parkingArea_254759937#0_0_343" lane="254759937#0_0" roadsideCapacity="80" startPos="51.29" endPos="56.29"/>
    <parkingArea id="parkingArea_254971070#0_0_217" lane="254971070#0_0" roadsideCapacity="250" startPos="53.12" endPos="58.12"/>
    <parkingArea id="parkingArea_254982299_0_25" lane="254982299_0" roadsideCapacity="100" startPos="75.86" endPos="80.86"/>
    <parkingArea id="parkingArea_255168047#0_0_112" lane="255168047#0_0" roadsideCapacity="129" startPos="54.00" endPos="59.00"/>
    <parkingArea id="parkingArea_255168048#0_0_7" lane="255168048#0_0" roadsideCapacity="66" startPos="73.23" endPos="78.23"/>
    <parkingArea id="parkingArea_255168048#3_0_15" lane="255168048#3_0" roadsideCapacity="96" startPos="70.86" endPos="75.86"/>
    <parkingArea id="parkingArea_255168048#4_0_17" lane="255168048#4_0" roadsideCapacity="115" startPos="51.33" endPos="56.33"/>
    <parkingArea id="parkingArea_255330036#10_0_92" lane="255330036#10_0" roadsideCapacity="40" startPos="35.25" endPos="40.25"/>
    <parkingArea id="parkingArea_255330036#13_0_94" lane="255330036#13_0" roadsideCapacity="293" startPos="116.49" endPos="121.49"/>
    <parkingArea id="parkingArea_255330036#3_0_122" lane="255330036#3_0" roadsideCapacity="200" startPos="60.37" endPos="65.37"/>
    <parkingArea id="parkingArea_255330036#7_0_96" lane="255330036#7_0" roadsideCapacity="133" startPos="104.14" endPos="109.14"/>
    <parkingArea id="parkingArea_255330069#0_0_132" lane="255330069#0_0" roadsideCapacity="97" startPos="43.83" endPos="48.83"/>
    <parkingArea id="parkingArea_255330069#1_0_134" lane="255330069#1_0" roadsideCapacity="10" startPos="45.45" endPos="50.45"/>
    <parkingArea id="parkingArea_25657409#19_0_127" lane="25657409#19_0" roadsideCapacity="160" startPos="147.84" endPos="152.84"/>
    <parkingArea id="parkingArea_25657409#7_0_171" lane="25657409#7_0" roadsideCapacity="47" startPos="24.21" endPos="34.21"/>
    <parkingArea id="parkingArea_256787755#3_0_189" lane="256787755#3_0" roadsideCapacity="56" startPos="29.41" endPos="34.41"/>
    <parkingArea id="parkingArea_25758528#0_0_114" lane="25758528#0_0" roadsideCapacity="124" startPos="60.11" endPos="65.11"/>