<?xml version="1.0" encoding="UTF-8"?>

<!-- generated on Thu 21 Feb 2019 05:06:49 PM PST by Eclipse SUMO netedit Version v1_0_1+0000-b43a3e4816
<configuration xmlns:xsi="http://www.w3.org/2001/XMLSchema-instance" xsi:noNamespaceSchemaLocation="http://sumo.dlr.de/xsd/netconvertConfiguration.xsd">

    <input>
        <sumo-net-file value="hello_trimmed.net.xml"/>
    </input>

    <output>
        <output-file value="hello_trimmed.net.xml"/>
    </output>

    <processing>
        <offset.disable-normalization value="true"/>
        <lefthand value="false"/>
    </processing>

    <junctions>
        <no-internal-links value="true"/>
        <no-turnarounds value="true"/>
        <junctions.corner-detail value="0"/>
        <junctions.limit-turn-speed value="-1"/>
        <rectangular-lane-cut value="false"/>
    </junctions>

    <pedestrian>
        <walkingareas value="false"/>
    </pedestrian>

</configuration>
-->

<additional xmlns:xsi="http://www.w3.org/2001/XMLSchema-instance" xsi:noNamespaceSchemaLocation="http://sumo.dlr.de/xsd/additional_file.xsd">
    <parkingArea id="parkingArea_-254971056#1_0_26" lane="-254971056#1_0" roadsideCapacity="6" startPos="22.63" endPos="64.63"/>
    <parkingArea id="parkingArea_-26938155#0_0_1" lane="-26938155#0_0" roadsideCapacity="9" startPos="8.08" endPos="71.08"/>
    <parkingArea id="parkingArea_-26938155#2_0_5" lane="-26938155#2_0" roadsideCapacity="13" startPos="3.35" endPos="94.35"/>
    <parkingArea id="parkingArea_-26938155#4_0_7" lane="-26938155#4_0" roadsideCapacity="10" startPos="20.06" endPos="90.06"/>
    <parkingArea id="parkingArea_-28231602#1_0_19" lane="-28231602#1_0" roadsideCapacity="12" startPos="7.58" endPos="91.58"/>
    <parkingArea id="parkingArea_-8922640#1_0_24" lane="-8922640#1_0" roadsideCapacity="9" startPos="29.49" endPos="92.49"/>
    <parkingArea id="parkingArea_-91185877#0_0_28" lane="-91185877#0_0" roadsideCapacity="3" startPos="4.42" endPos="25.42"/>
    <parkingArea id="parkingArea_224384020#0_0_9" lane="224384020#0_0" roadsideCapacity="32" startPos="24.35" endPos="120.35"/>
    <parkingArea id="parkingArea_224384020#2_0_6" lane="224384020#2_0" roadsideCapacity="31" startPos="24.79" endPos="117.79"/>
    <parkingArea id="parkingArea_24245395#0_0_20" lane="24245395#0_0" roadsideCapacity="17" startPos="25.89" endPos="76.89"/>
    <parkingArea id="parkingArea_24245395#1_0_22" lane="24245395#1_0" roadsideCapacity="16" startPos="33.67" endPos="81.67"/>
    <parkingArea id="parkingArea_25372358#0_0_11" lane="25372358#0_0" roadsideCapacity="9" startPos="18.78" endPos="82.78"/>
    <parkingArea id="parkingArea_25372358#1_0_10" lane="25372358#1_0" roadsideCapacity="19" startPos="20.66" endPos="77.66"/>
    <parkingArea id="parkingArea_254971056#1_0_25" lane="254971056#1_0" roadsideCapacity="9" startPos="13.67" endPos="76.67"/>
    <parkingArea id="parkingArea_26938155#0_0_0" lane="26938155#0_0" roadsideCapacity="8" startPos="26.11" endPos="82.11"/>
    <parkingArea id="parkingArea_26938155#1_0_4" lane="26938155#1_0" roadsideCapacity="11" startPos="11.51" endPos="88.51"/>
    <parkingArea id="parkingArea_26938155#3_0_8" lane="26938155#3_0" roadsideCapacity="11" startPos="10.33" endPos="87.33"/>
    <parkingArea id="parkingArea_27054195#0_0_12" lane="27054195#0_0" roadsideCapacity="23" startPos="44.22" endPos="113.22"/>
    <parkingArea id="parkingArea_28231602#0_0_18" lane="28231602#0_0" roadsideCapacity="9" startPos="20.28" endPos="83.28"/>
    <parkingArea id="parkingArea_47108420#0_0_17" lane="47108420#0_0" roadsideCapacity="22" startPos="22.62" endPos="88.62"/>
    <parkingArea id="parkingArea_48211230#2_0_21" lane="48211230#2_0" roadsideCapacity="18" startPos="15.67" endPos="69.67"/>
    <parkingArea id="parkingArea_48211230#4_0_14" lane="48211230#4_0" roadsideCapacity="13" startPos="6.61" endPos="97.61"/>
    <parkingArea id="parkingArea_8919205#16_0_27" lane="8919205#16_0" roadsideCapacity="4" startPos="15.28" endPos="43.28"/>
    <parkingArea id="parkingArea_8919205#17_0_4" lane="8919205#17_0" roadsideCapacity="14" startPos="24.54" endPos="66.54"/>
    <parkingArea id="parkingArea_8919205#18_0_3" lane="8919205#18_0" roadsideCapacity="33" startPos="25.39" endPos="124.39"/>
    <parkingArea id="parkingArea_8919205#21_0_15" lane="8919205#21_0" roadsideCapacity="11" startPos="13.81" endPos="90.81"/>
    <parkingArea id="parkingArea_8919205#24_0_16" lane="8919205#24_0" roadsideCapacity="23" startPos="14.81" endPos="83.81"/>
    <parkingArea id="parkingArea_8922640#0_0_23" lane="8922640#0_0" roadsideCapacity="4" startPos="75.51" endPos="103.51"/>
    <parkingArea id="parkingArea_91181772#0_0_13" lane="91181772#0_0" roadsideCapacity="24" startPos="19.26" endPos="91.26"/>
    <parkingArea id="parkingArea_91182062#3_0_29" lane="91182062#3_0" roadsideCapacity="12" startPos="9.29" endPos="45.29"/>
</additional>
