<?xml version="1.0" encoding="UTF-8"?>

<!-- generated on Sun 07 Jul 2019 10:53:36 PM PDT by Eclipse SUMO netedit Version v1_1_0+0000-2147d155b1
<configuration xmlns:xsi="http://www.w3.org/2001/XMLSchema-instance" xsi:noNamespaceSchemaLocation="http://sumo.dlr.de/xsd/netconvertConfiguration.xsd">

    <input>
        <sumo-net-file value="san_francisco.net.xml"/>
    </input>

    <output>
        <output-file value="san_francisco.net.xml"/>
    </output>

    <processing>
        <geometry.max-grade.fix value="false"/>
        <offset.disable-normalization value="true"/>
        <lefthand value="false"/>
    </processing>

    <junctions>
        <no-internal-links value="true"/>
        <no-turnarounds value="true"/>
        <junctions.corner-detail value="0"/>
        <junctions.limit-turn-speed value="-1"/>
        <rectangular-lane-cut value="false"/>
    </junctions>

    <pedestrian>
        <walkingareas value="false"/>
    </pedestrian>

</configuration>
-->

<additional xmlns:xsi="http://www.w3.org/2001/XMLSchema-instance" xsi:noNamespaceSchemaLocation="http://sumo.dlr.de/xsd/additional_file.xsd">
    <parkingArea id="parkingArea_-100400941#0_0_1085" lane="-100400941#0_0" roadsideCapacity="19" startPos="23.35" endPos="118.35"/>
    <parkingArea id="parkingArea_-100400941#1_0_1083" lane="-100400941#1_0" roadsideCapacity="17" startPos="29.16" endPos="114.16"/>
    <parkingArea id="parkingArea_-100400942#0_0_637" lane="-100400942#0_0" roadsideCapacity="3" startPos="43.12" endPos="55.12"/>
    <parkingArea id="parkingArea_-100400942#1_0_635" lane="-100400942#1_0" roadsideCapacity="9" startPos="30.94" endPos="75.94"/>
    <parkingArea id="parkingArea_-100400946_0_993" lane="-100400946_0" roadsideCapacity="12" startPos="60.51" endPos="108.51"/>
    <parkingArea id="parkingArea_-111089307#0_0_936" lane="-111089307#0_0" roadsideCapacity="12" startPos="36.14" endPos="84.14"/>
    <parkingArea id="parkingArea_-111089307#1_0_946" lane="-111089307#1_0" roadsideCapacity="5" startPos="15.92" endPos="40.92"/>
    <parkingArea id="parkingArea_-111089307#2_0_948" lane="-111089307#2_0" roadsideCapacity="13" startPos="38.31" endPos="90.31"/>
    <parkingArea id="parkingArea_-111089307#3_0_958" lane="-111089307#3_0" roadsideCapacity="5" startPos="16.83" endPos="41.83"/>
    <parkingArea id="parkingArea_-111089307#4_0_961" lane="-111089307#4_0" roadsideCapacity="7" startPos="54.38" endPos="89.38"/>
    <parkingArea id="parkingArea_-111547662#2_0_728" lane="-111547662#2_0" roadsideCapacity="11" startPos="70.43" endPos="125.43"/>
    <parkingArea id="parkingArea_-111550910#1_0_480" lane="-111550910#1_0" roadsideCapacity="24" startPos="34.93" endPos="82.93"/>
    <parkingArea id="parkingArea_-111550910#2_0_478" lane="-111550910#2_0" roadsideCapacity="12" startPos="39.31" endPos="75.31"/>
    <parkingArea id="parkingArea_-111550911#1_0_521" lane="-111550911#1_0" roadsideCapacity="16" startPos="9.58" endPos="41.58"/>
    <parkingArea id="parkingArea_-111560681#2_0_745" lane="-111560681#2_0" roadsideCapacity="30" startPos="61.28" endPos="151.28"/>
    <parkingArea id="parkingArea_-111560682_0_418" lane="-111560682_0" roadsideCapacity="2" startPos="37.05" endPos="47.05"/>
    <parkingArea id="parkingArea_-111586254#3_0_584" lane="-111586254#3_0" roadsideCapacity="5" startPos="37.98" endPos="62.98"/>
    <parkingArea id="parkingArea_-120256349_0_417" lane="-120256349_0" roadsideCapacity="7" startPos="38.84" endPos="73.84"/>
    <parkingArea id="parkingArea_-122498865_0_730" lane="-122498865_0" roadsideCapacity="6" startPos="24.99" endPos="54.99"/>
    <parkingArea id="parkingArea_-133376113#2_0_969" lane="-133376113#2_0" roadsideCapacity="8" startPos="17.26" endPos="57.26"/>
    <parkingArea id="parkingArea_-133376114#1_0_973" lane="-133376114#1_0" roadsideCapacity="4" startPos="36.90" endPos="56.90"/>
    <parkingArea id="parkingArea_-133376114#2_0_977" lane="-133376114#2_0" roadsideCapacity="11" startPos="19.72" endPos="74.72"/>
    <parkingArea id="parkingArea_-133376120#0_0_1031" lane="-133376120#0_0" roadsideCapacity="4" startPos="15.32" endPos="35.32"/>
    <parkingArea id="parkingArea_-133376120#12_0_1302" lane="-133376120#12_0" roadsideCapacity="10" startPos="33.44" endPos="63.44"/>
    <parkingArea id="parkingArea_-133376120#13_0_1300" lane="-133376120#13_0" roadsideCapacity="9" startPos="29.55" endPos="56.55"/>
    <parkingArea id="parkingArea_-133376120#1_0_1029" lane="-133376120#1_0" roadsideCapacity="3" startPos="29.54" endPos="44.54"/>
    <parkingArea id="parkingArea_-133376120#4_0_1318" lane="-133376120#4_0" roadsideCapacity="12" startPos="33.54" endPos="69.54"/>
    <parkingArea id="parkingArea_-133376120#4_0_1322" lane="-133376120#4_0" roadsideCapacity="11" startPos="137.51" endPos="170.51"/>
    <parkingArea id="parkingArea_-133376120#9_0_1312" lane="-133376120#9_0" roadsideCapacity="11" startPos="18.80" endPos="51.80"/>
    <parkingArea id="parkingArea_-133733582#3_0_684" lane="-133733582#3_0" roadsideCapacity="9" startPos="54.71" endPos="99.71"/>
    <parkingArea id="parkingArea_-133755923#0_0_812" lane="-133755923#0_0" roadsideCapacity="42" startPos="105.40" endPos="187.40"/>
    <parkingArea id="parkingArea_-133755923#1_0_810" lane="-133755923#1_0" roadsideCapacity="35" startPos="68.66" endPos="138.66"/>
    <parkingArea id="parkingArea_-133781759#1_0_681" lane="-133781759#1_0" roadsideCapacity="11" startPos="19.64" endPos="52.64"/>
    <parkingArea id="parkingArea_-135110258#0_0_409" lane="-43100086_0" roadsideCapacity="32" startPos="267.78" endPos="299.78"/>
    <parkingArea id="parkingArea_-141688972#1_0_798" lane="-141688972#1_0" roadsideCapacity="22" startPos="53.53" endPos="163.53"/>
    <parkingArea id="parkingArea_-143617587_0_714" lane="-143617587_0" roadsideCapacity="60" startPos="76.20" endPos="196.20"/>
    <parkingArea id="parkingArea_-143617589#2_0_526" lane="-143617589#2_0" roadsideCapacity="13" startPos="7.04" endPos="33.04"/>
    <parkingArea id="parkingArea_-143617593_0_703" lane="-143617593_0" roadsideCapacity="1" startPos="159.31" endPos="164.31"/>
    <parkingArea id="parkingArea_-143617593_0_705" lane="-143617593_0" roadsideCapacity="6" startPos="28.19" endPos="58.19"/>
    <parkingArea id="parkingArea_-143666208#0_0_258" lane="-143666208#0_0" roadsideCapacity="9" startPos="40.48" endPos="85.48"/>
    <parkingArea id="parkingArea_-143666209#1_0_241" lane="-143666209#1_0" roadsideCapacity="12" startPos="38.30" endPos="74.30"/>
    <parkingArea id="parkingArea_-143666209#2_0_225" lane="-143666209#2_0" roadsideCapacity="5" startPos="9.23" endPos="34.23"/>
    <parkingArea id="parkingArea_-143666209#3_0_227" lane="-143666209#3_0" roadsideCapacity="5" startPos="15.80" endPos="40.80"/>
    <parkingArea id="parkingArea_-143666209#5_0_182" lane="-143666209#5_0" roadsideCapacity="10" startPos="30.97" endPos="60.97"/>
    <parkingArea id="parkingArea_-143666209#6_0_163" lane="-143666209#6_0" roadsideCapacity="10" startPos="30.99" endPos="80.99"/>
    <parkingArea id="parkingArea_-144346316#2_0_1163" lane="-144346316#2_0" roadsideCapacity="11" startPos="48.99" endPos="103.99"/>
    <parkingArea id="parkingArea_-144346316#4_0_1165" lane="-144346316#4_0" roadsideCapacity="14" startPos="70.67" endPos="112.67"/>
    <parkingArea id="parkingArea_-144346316#5_0_665" lane="-144346316#5_0" roadsideCapacity="25" startPos="41.05" endPos="105.05"/>
    <parkingArea id="parkingArea_-146155885_0_155" lane="-48211062#0_0" roadsideCapacity="2" startPos="143.58" endPos="151.58"/>
    <parkingArea id="parkingArea_-148846997#1_0_1329" lane="-148846997#1_0" roadsideCapacity="9" startPos="54.46" endPos="81.46"/>
    <parkingArea id="parkingArea_-148846997#4_0_1311" lane="-148846997#4_0" roadsideCapacity="16" startPos="38.57" endPos="102.57"/>
    <parkingArea id="parkingArea_-148846997#6_0_1295" lane="-148846997#6_0" roadsideCapacity="21" startPos="41.85" endPos="104.85"/>
    <parkingArea id="parkingArea_-148846997#8_0_1235" lane="-148846997#8_0" roadsideCapacity="17" startPos="68.53" endPos="119.53"/>
    <parkingArea id="parkingArea_-148846999#1_0_137" lane="-148846999#1_0" roadsideCapacity="21" startPos="53.13" endPos="116.13"/>
    <parkingArea id="parkingArea_-148846999#2_0_134" lane="-148846999#2_0" roadsideCapacity="15" startPos="48.36" endPos="93.36"/>
    <parkingArea id="parkingArea_-148847000#3_0_112" lane="-148847000#3_0" roadsideCapacity="13" startPos="18.22" endPos="70.22"/>
    <parkingArea id="parkingArea_-148847000#5_0_144" lane="-148847000#5_0" roadsideCapacity="8" startPos="35.95" endPos="75.95"/>
    <parkingArea id="parkingArea_-148847001#1_0_159" lane="-148847001#1_0" roadsideCapacity="6" startPos="41.10" endPos="65.10"/>
    <parkingArea id="parkingArea_-148847001#3_0_178" lane="-148847001#3_0" roadsideCapacity="10" startPos="31.68" endPos="71.68"/>
    <parkingArea id="parkingArea_-148847001#4_0_233" lane="-148847001#4_0" roadsideCapacity="9" startPos="29.82" endPos="74.82"/>
    <parkingArea id="parkingArea_-148847001#5_0_244" lane="-148847001#5_0" roadsideCapacity="11" startPos="30.52" endPos="63.52"/>
    <parkingArea id="parkingArea_-148847001#8_0_255" lane="-148847001#8_0" roadsideCapacity="5" startPos="22.06" endPos="47.06"/>
    <parkingArea id="parkingArea_-148847005#2_0_82" lane="-148847005#2_0" roadsideCapacity="4" startPos="38.47" endPos="54.47"/>
    <parkingArea id="parkingArea_-148874365#10_0_84" lane="-148874365#10_0" roadsideCapacity="16" startPos="35.24" endPos="99.24"/>
    <parkingArea id="parkingArea_-148874365#1_0_89" lane="-148874365#1_0" roadsideCapacity="16" startPos="33.73" endPos="97.73"/>
    <parkingArea id="parkingArea_-148874365#5_0_86" lane="-148874365#5_0" roadsideCapacity="12" startPos="36.27" endPos="84.27"/>
    <parkingArea id="parkingArea_-160325571#1_0_380" lane="-160325571#1_0" roadsideCapacity="6" startPos="174.59" endPos="198.59"/>
    <parkingArea id="parkingArea_-162931811#0_0_711" lane="-162931811#0_0" roadsideCapacity="8" startPos="36.13" endPos="76.13"/>
    <parkingArea id="parkingArea_-162931811#1_0_713" lane="-162931811#1_0" roadsideCapacity="10" startPos="26.39" endPos="76.39"/>
    <parkingArea id="parkingArea_-184956229#1_0_585" lane="-184956229#1_0" roadsideCapacity="10" startPos="17.94" endPos="57.94"/>
    <parkingArea id="parkingArea_-191296172#0_0_954" lane="-191296172#0_0" roadsideCapacity="12" startPos="42.36" endPos="78.36"/>
    <parkingArea id="parkingArea_-191296172#2_0_950" lane="-191296172#2_0" roadsideCapacity="10" startPos="51.11" endPos="101.11"/>
    <parkingArea id="parkingArea_-196831123#1_0_223" lane="-196831123#1_0" roadsideCapacity="15" startPos="39.00" endPos="99.00"/>
    <parkingArea id="parkingArea_-196831123#2_0_221" lane="-196831123#2_0" roadsideCapacity="17" startPos="50.09" endPos="118.09"/>
    <parkingArea id="parkingArea_-202485361#1_0_445" lane="-202485361#1_0" roadsideCapacity="9" startPos="36.70" endPos="76.70"/>
    <parkingArea id="parkingArea_-206662304#10_0_1246" lane="-206662304#10_0" roadsideCapacity="9" startPos="20.77" endPos="65.77"/>
    <parkingArea id="parkingArea_-206662304#13_0_659" lane="-206662304#13_0" roadsideCapacity="22" startPos="79.26" endPos="145.26"/>
    <parkingArea id="parkingArea_-206662304#1_0_1331" lane="-206662304#1_0" roadsideCapacity="14" startPos="48.25" endPos="90.25"/>
    <parkingArea id="parkingArea_-206662304#4_0_1315" lane="-206662304#4_0" roadsideCapacity="15" startPos="52.01" endPos="112.01"/>
    <parkingArea id="parkingArea_-206662304#6_0_1297" lane="-206662304#6_0" roadsideCapacity="11" startPos="55.70" endPos="88.70"/>
    <parkingArea id="parkingArea_-206662304#8_0_1242" lane="-206662304#8_0" roadsideCapacity="11" startPos="60.31" endPos="115.31"/>
    <parkingArea id="parkingArea_-206662304#9_0_1244" lane="-206662304#10_0" roadsideCapacity="5" startPos="97.25" endPos="117.25"/>
    <parkingArea id="parkingArea_-206679802#3_0_1253" lane="-206679802#3_0" roadsideCapacity="10" startPos="51.67" endPos="81.67"/>
    <parkingArea id="parkingArea_-206679802#4_0_657" lane="-206679802#4_0" roadsideCapacity="27" startPos="126.23" endPos="207.23"/>
    <parkingArea id="parkingArea_-214545530#2_0_695" lane="-214545530#2_0" roadsideCapacity="10" startPos="70.98" endPos="120.98"/>
    <parkingArea id="parkingArea_-214545530#3_0_697" lane="-214545530#3_0" roadsideCapacity="6" startPos="19.87" endPos="49.87"/>
    <parkingArea id="parkingArea_-214545530#6_0_699" lane="-214545530#6_0" roadsideCapacity="3" startPos="23.73" endPos="38.73"/>
    <parkingArea id="parkingArea_-214545530#7_0_701" lane="-214545530#7_0" roadsideCapacity="5" startPos="25.40" endPos="50.40"/>
    <parkingArea id="parkingArea_-224316527_0_332" lane="-224316527_0" roadsideCapacity="10" startPos="17.93" endPos="67.93"/>
    <parkingArea id="parkingArea_-224384010#1_0_36" lane="-224384010#1_0" roadsideCapacity="7" startPos="37.43" endPos="72.43"/>
    <parkingArea id="parkingArea_-224384059#0_0_477" lane="-224384059#0_0" roadsideCapacity="9" startPos="43.32" endPos="88.32"/>
    <parkingArea id="parkingArea_-225432462#1_0_429" lane="-225432462#1_0" roadsideCapacity="10" startPos="38.82" endPos="58.82"/>
    <parkingArea id="parkingArea_-225518512#1_0_517" lane="-225518512#1_0" roadsideCapacity="31" startPos="41.70" endPos="92.63"/>
    <parkingArea id="parkingArea_-225847513_0_675" lane="-225847513_0" roadsideCapacity="16" startPos="49.03" endPos="113.03"/>
    <parkingArea id="parkingArea_-225853133_0_1202" lane="-225853133_0" roadsideCapacity="12" startPos="42.17" endPos="90.17"/>
    <parkingArea id="parkingArea_-225853134_0_680" lane="-225853134_0" roadsideCapacity="21" startPos="51.61" endPos="114.61"/>
    <parkingArea id="parkingArea_-228202845#2_0_628" lane="-228202845#2_0" roadsideCapacity="14" startPos="24.66" endPos="66.66"/>
    <parkingArea id="parkingArea_-23883760_0_832" lane="-23883760_0" roadsideCapacity="88" startPos="27.44" endPos="203.44"/>
    <parkingArea id="parkingArea_-23883761_0_833" lane="-23883761_0" roadsideCapacity="37" startPos="26.17" endPos="174.17"/>
    <parkingArea id="parkingArea_-23924508#2_0_141" lane="-23924508#2_0" roadsideCapacity="12" startPos="55.79" endPos="91.79"/>
    <parkingArea id="parkingArea_-23924509#0_0_157" lane="-23924509#0_0" roadsideCapacity="2" startPos="10.25" endPos="18.25"/>
    <parkingArea id="parkingArea_-23924510#0_0_186" lane="-23924510#0_0" roadsideCapacity="15" startPos="18.95" endPos="78.95"/>
    <parkingArea id="parkingArea_-23924510#2_0_193" lane="-23924510#2_0" roadsideCapacity="13" startPos="22.26" endPos="61.26"/>
    <parkingArea id="parkingArea_-242896157#0_0_442" lane="-242896157#0_0" roadsideCapacity="9" startPos="27.22" endPos="72.22"/>
    <parkingArea id="parkingArea_-242896157#3_0_434" lane="-242896157#3_0" roadsideCapacity="8" startPos="26.63" endPos="66.63"/>
    <parkingArea id="parkingArea_-24310636#0_0_933" lane="-24310636#0_0" roadsideCapacity="9" startPos="27.33" endPos="72.33"/>
    <parkingArea id="parkingArea_-24310636#1_0_935" lane="-24310636#1_0" roadsideCapacity="9" startPos="28.04" endPos="73.04"/>
    <parkingArea id="parkingArea_-24310636#2_0_939" lane="-24310636#2_0" roadsideCapacity="15" startPos="37.61" endPos="82.61"/>
    <parkingArea id="parkingArea_-24335439#0_0_930" lane="-24335439#0_0" roadsideCapacity="5" startPos="17.53" endPos="42.53"/>
    <parkingArea id="parkingArea_-24335439#1_0_925" lane="-24335439#1_0" roadsideCapacity="4" startPos="16.90" endPos="32.90"/>
    <parkingArea id="parkingArea_-24335439#2_0_919" lane="-24335439#2_0" roadsideCapacity="4" startPos="26.37" endPos="38.37"/>
    <parkingArea id="parkingArea_-24335440#0_0_941" lane="-24335440#0_0" roadsideCapacity="5" startPos="29.46" endPos="54.46"/>
    <parkingArea id="parkingArea_-24335440#1_0_943" lane="-24335440#1_0" roadsideCapacity="7" startPos="16.95" endPos="51.95"/>
    <parkingArea id="parkingArea_-24335483#3_0_972" lane="-24335483#3_0" roadsideCapacity="6" startPos="58.93" endPos="88.93"/>
    <parkingArea id="parkingArea_-24335483#5_0_1061" lane="-24335483#5_0" roadsideCapacity="6" startPos="55.55" endPos="85.55"/>
    <parkingArea id="parkingArea_-24335483#6_0_1063" lane="-24335483#6_0" roadsideCapacity="3" startPos="67.12" endPos="82.12"/>
    <parkingArea id="parkingArea_-24335483#8_0_1144" lane="-24335483#8_0" roadsideCapacity="7" startPos="52.75" endPos="87.75"/>
    <parkingArea id="parkingArea_-24335483#9_0_652" lane="-24335483#9_0" roadsideCapacity="6" startPos="174.17" endPos="210.17"/>
    <parkingArea id="parkingArea_-24335483#9_0_654" lane="-24335483#9_0" roadsideCapacity="11" startPos="35.01" endPos="68.01"/>
    <parkingArea id="parkingArea_-24335485#3_0_967" lane="-24335485#3_0" roadsideCapacity="5" startPos="60.01" endPos="85.01"/>
    <parkingArea id="parkingArea_-24335486#1_0_631" lane="-24335486#1_0" roadsideCapacity="9" startPos="18.18" endPos="63.18"/>
    <parkingArea id="parkingArea_-24335487#0_0_1348" lane="-24335487#0_0" roadsideCapacity="6" startPos="25.75" endPos="55.75"/>
    <parkingArea id="parkingArea_-24335487#1_0_1350" lane="-24335487#1_0" roadsideCapacity="6" startPos="27.14" endPos="57.14"/>
    <parkingArea id="parkingArea_-24335487#2_0_1346" lane="-24335487#2_0" roadsideCapacity="5" startPos="33.40" endPos="58.40"/>
    <parkingArea id="parkingArea_-24588081_0_645" lane="-24588081_0" roadsideCapacity="9" startPos="26.70" endPos="71.70"/>
    <parkingArea id="parkingArea_-247966218#2_0_868" lane="-247966218#2_0" roadsideCapacity="18" startPos="100.38" endPos="172.38"/>
    <parkingArea id="parkingArea_-247966218#3_0_790" lane="-247966218#3_0" roadsideCapacity="4" startPos="19.42" endPos="39.42"/>
    <parkingArea id="parkingArea_-247966218#4_0_792" lane="-247966218#4_0" roadsideCapacity="7" startPos="9.50" endPos="23.50"/>
    <parkingArea id="parkingArea_-247966218#7_0_794" lane="-247966218#7_0" roadsideCapacity="8" startPos="18.11" endPos="34.11"/>
    <parkingArea id="parkingArea_-247966218#8_0_796" lane="-247966218#8_0" roadsideCapacity="4" startPos="18.75" endPos="34.75"/>
    <parkingArea id="parkingArea_-25371463_0_928" lane="-25371463_0" roadsideCapacity="2" startPos="16.41" endPos="26.41"/>
    <parkingArea id="parkingArea_-25372932#2_0_1131" lane="-25372932#2_0" roadsideCapacity="8" startPos="21.27" endPos="61.27"/>
    <parkingArea id="parkingArea_-25372932#3_0_1129" lane="-25372932#3_0" roadsideCapacity="10" startPos="24.35" endPos="74.35"/>
    <parkingArea id="parkingArea_-25372932#4_0_1127" lane="-25372932#4_0" roadsideCapacity="9" startPos="30.56" endPos="75.56"/>
    <parkingArea id="parkingArea_-25372932#5_0_1125" lane="-25372932#5_0" roadsideCapacity="10" startPos="30.49" endPos="70.49"/>
    <parkingArea id="parkingArea_-254297762#1_0_1205" lane="-254297762#2_0" roadsideCapacity="7" startPos="210.62" endPos="245.62"/>
    <parkingArea id="parkingArea_-254299112#0_0_209" lane="-254299112#0_0" roadsideCapacity="28" startPos="50.19" endPos="166.19"/>
    <parkingArea id="parkingArea_-254299112#1_0_207" lane="-254299112#1_0" roadsideCapacity="7" startPos="28.27" endPos="56.27"/>
    <parkingArea id="parkingArea_-254299112#2_0_205" lane="-254299112#2_0" roadsideCapacity="17" startPos="50.85" endPos="104.85"/>
    <parkingArea id="parkingArea_-254299113#0_0_202" lane="-254299113#0_0" roadsideCapacity="16" startPos="50.02" endPos="98.02"/>
    <parkingArea id="parkingArea_-254299113#2_0_201" lane="-254299113#2_0" roadsideCapacity="16" startPos="41.79" endPos="89.79"/>
    <parkingArea id="parkingArea_-254299113#3_0_198" lane="-254299113#3_0" roadsideCapacity="20" startPos="45.04" endPos="105.04"/>
    <parkingArea id="parkingArea_-254299125_0_217" lane="-254299125_0" roadsideCapacity="9" startPos="53.10" endPos="89.10"/>
    <parkingArea id="parkingArea_-254299128#0_0_242" lane="-254299128#0_0" roadsideCapacity="8" startPos="32.24" endPos="56.24"/>
    <parkingArea id="parkingArea_-254305050#0_0_774" lane="-254305050#0_0" roadsideCapacity="9" startPos="47.48" endPos="74.48"/>
    <parkingArea id="parkingArea_-254305050#1_0_773" lane="-254305050#1_0" roadsideCapacity="10" startPos="52.05" endPos="82.05"/>
    <parkingArea id="parkingArea_-254396709#1_0_358" lane="-254396709#1_0" roadsideCapacity="10" startPos="48.44" endPos="98.44"/>
    <parkingArea id="parkingArea_-254396719#1_0_336" lane="-254396719#1_0" roadsideCapacity="8" startPos="22.92" endPos="62.92"/>
    <parkingArea id="parkingArea_-254466686#0_0_363" lane="-254466686#0_0" roadsideCapacity="7" startPos="30.18" endPos="65.18"/>
    <parkingArea id="parkingArea_-254466686#3_0_362" lane="-254466686#3_0" roadsideCapacity="7" startPos="36.86" endPos="71.86"/>
    <parkingArea id="parkingArea_-254466686#4_0_360" lane="-254466686#4_0" roadsideCapacity="9" startPos="35.42" endPos="80.42"/>
    <parkingArea id="parkingArea_-254756526#1_0_338" lane="-254756526#1_0" roadsideCapacity="5" startPos="33.35" endPos="58.35"/>
    <parkingArea id="parkingArea_-254756527_0_1337" lane="-254756527_0" roadsideCapacity="2" startPos="19.14" endPos="29.14"/>
    <parkingArea id="parkingArea_-254758120#3_0_673" lane="-254758120#3_0" roadsideCapacity="11" startPos="59.82" endPos="92.82"/>
    <parkingArea id="parkingArea_-254758121#0_0_1152" lane="-254758121#0_0" roadsideCapacity="10" startPos="24.17" endPos="74.17"/>
    <parkingArea id="parkingArea_-254758121#2_0_1157" lane="-254758121#2_0" roadsideCapacity="12" startPos="41.02" endPos="77.02"/>
    <parkingArea id="parkingArea_-254758121#3_0_1161" lane="-254758121#3_0" roadsideCapacity="10" startPos="32.74" endPos="82.74"/>
    <parkingArea id="parkingArea_-254758127#0_0_1119" lane="-254758127#0_0" roadsideCapacity="5" startPos="25.78" endPos="45.78"/>
    <parkingArea id="parkingArea_-254758127#11_0_1225" lane="-254758127#11_0" roadsideCapacity="10" startPos="32.47" endPos="62.47"/>
    <parkingArea id="parkingArea_-254758127#14_0_1221" lane="-254758127#14_0" roadsideCapacity="15" startPos="28.70" endPos="73.70"/>
    <parkingArea id="parkingArea_-254758127#17_0_1213" lane="-254758127#17_0" roadsideCapacity="8" startPos="32.09" endPos="72.09"/>
    <parkingArea id="parkingArea_-254758127#1_0_1262" lane="-254758127#1_0" roadsideCapacity="4" startPos="18.75" endPos="38.75"/>
    <parkingArea id="parkingArea_-254758127#2_0_1260" lane="-254758127#2_0" roadsideCapacity="4" startPos="12.77" endPos="32.77"/>
    <parkingArea id="parkingArea_-254758127#3_0_1254" lane="-254758127#3_0" roadsideCapacity="10" startPos="37.26" endPos="67.26"/>
    <parkingArea id="parkingArea_-254758127#4_0_1249" lane="-254758127#4_0" roadsideCapacity="8" startPos="13.74" endPos="29.74"/>
    <parkingArea id="parkingArea_-254758127#5_0_1247" lane="-254758127#5_0" roadsideCapacity="5" startPos="14.73" endPos="39.73"/>
    <parkingArea id="parkingArea_-254758127#6_0_1240" lane="-254758127#7_0" roadsideCapacity="3" startPos="20.71" endPos="35.71"/>
    <parkingArea id="parkingArea_-254758127#7_0_1237" lane="-254758127#7_0" roadsideCapacity="8" startPos="65.31" endPos="81.31"/>
    <parkingArea id="parkingArea_-254758127#8_0_1233" lane="-254758127#9_0" roadsideCapacity="9" startPos="28.69" endPos="73.69"/>
    <parkingArea id="parkingArea_-254758139#0_0_707" lane="-254758139#0_0" roadsideCapacity="4" startPos="24.09" endPos="44.09"/>
    <parkingArea id="parkingArea_-254758139#3_0_709" lane="-254758139#3_0" roadsideCapacity="13" startPos="51.10" endPos="103.10"/>
    <parkingArea id="parkingArea_-254971056#1_0_278" lane="-254971056#1_0" roadsideCapacity="7" startPos="43.57" endPos="64.57"/>
    <parkingArea id="parkingArea_-254971064#1_0_426" lane="-254971064#1_0" roadsideCapacity="12" startPos="45.84" endPos="81.84"/>
    <parkingArea id="parkingArea_-254971068_0_334" lane="-254971068_0" roadsideCapacity="8" startPos="26.10" endPos="66.10"/>
    <parkingArea id="parkingArea_-254971069#1_0_340" lane="-254971069#1_0" roadsideCapacity="6" startPos="35.38" endPos="65.38"/>
    <parkingArea id="parkingArea_-254982299_0_219" lane="-254982299_0" roadsideCapacity="18" startPos="53.97" endPos="107.97"/>
    <parkingArea id="parkingArea_-255168048#2_0_215" lane="-255168048#2_0" roadsideCapacity="10" startPos="72.31" endPos="112.31"/>
    <parkingArea id="parkingArea_-255168048#3_0_213" lane="-255168048#3_0" roadsideCapacity="11" startPos="46.43" endPos="90.43"/>
    <parkingArea id="parkingArea_-255168048#4_0_211" lane="-255168048#4_0" roadsideCapacity="10" startPos="53.32" endPos="93.32"/>
    <parkingArea id="parkingArea_-255330036#13_0_407" lane="-255330036#13_0" roadsideCapacity="30" startPos="62.53" endPos="152.53"/>
    <parkingArea id="parkingArea_-255330036#3_0_529" lane="-255330036#3_0" roadsideCapacity="27" startPos="7.52" endPos="61.52"/>
    <parkingArea id="parkingArea_-255330036#7_0_494" lane="-255330036#7_0" roadsideCapacity="14" startPos="32.79" endPos="74.79"/>
    <parkingArea id="parkingArea_-255330036#9_0_493" lane="-255330036#9_0" roadsideCapacity="13" startPos="18.00" endPos="57.00"/>
    <parkingArea id="parkingArea_-256400251#1_0_419" lane="-256400251#1_0" roadsideCapacity="15" startPos="17.82" endPos="55.92"/>
    <parkingArea id="parkingArea_-25758513_0_918" lane="-25758513_0" roadsideCapacity="31" startPos="20.15" endPos="113.15"/>
    <parkingArea id="parkingArea_-258613674#1_0_611" lane="-258613674#1_0" roadsideCapacity="13" startPos="25.30" endPos="38.30"/>
    <parkingArea id="parkingArea_-263819574#1_0_32" lane="-263819574#1_0" roadsideCapacity="17" startPos="23.69" endPos="108.69"/>
    <parkingArea id="parkingArea_-264874017#2_0_741" lane="-264874017#2_0" roadsideCapacity="10" startPos="78.79" endPos="118.79"/>
    <parkingArea id="parkingArea_-264874017#4_0_748" lane="-264874017#4_0" roadsideCapacity="6" startPos="19.32" endPos="49.32"/>
    <parkingArea id="parkingArea_-264874017#5_0_750" lane="-264874017#5_0" roadsideCapacity="4" startPos="31.78" endPos="47.78"/>
    <parkingArea id="parkingArea_-26938155#0_0_1" lane="-26938155#0_0" roadsideCapacity="9" startPos="8.08" endPos="71.08"/>
    <parkingArea id="parkingArea_-26938155#2_0_5" lane="-26938155#2_0" roadsideCapacity="13" startPos="3.35" endPos="94.35"/>
    <parkingArea id="parkingArea_-26938155#4_0_7" lane="-26938155#4_0" roadsideCapacity="10" startPos="20.06" endPos="90.06"/>
    <parkingArea id="parkingArea_-26938418#1_0_1140" lane="-26938418#1_0" roadsideCapacity="4" startPos="14.48" endPos="34.48"/>
    <parkingArea id="parkingArea_-26938418#2_0_1142" lane="-26938418#2_0" roadsideCapacity="4" startPos="8.57" endPos="16.57"/>
    <parkingArea id="parkingArea_-26938418#3_0_1146" lane="-26938418#3_0" roadsideCapacity="14" startPos="24.52" endPos="80.52"/>
    <parkingArea id="parkingArea_-26943758#1_0_866" lane="-26943758#1_0" roadsideCapacity="21" startPos="86.47" endPos="149.47"/>
    <parkingArea id="parkingArea_-26988030#3_0_1199" lane="-26988030#3_0" roadsideCapacity="6" startPos="21.41" endPos="51.41"/>
    <parkingArea id="parkingArea_-27029200#1_0_963" lane="-27029200#1_0" roadsideCapacity="6" startPos="35.74" endPos="65.74"/>
    <parkingArea id="parkingArea_-27029200#2_0_965" lane="-27029200#2_0" roadsideCapacity="5" startPos="26.28" endPos="51.28"/>
    <parkingArea id="parkingArea_-27029246_0_952" lane="-27029246_0" roadsideCapacity="15" startPos="55.22" endPos="130.22"/>
    <parkingArea id="parkingArea_-27029263_0_890" lane="-27029263_0" roadsideCapacity="14" startPos="51.59" endPos="93.59"/>
    <parkingArea id="parkingArea_-27054184#1_0_292" lane="-27054184#1_0" roadsideCapacity="8" startPos="38.19" endPos="78.19"/>
    <parkingArea id="parkingArea_-27166421#2_0_1041" lane="-27166421#2_0" roadsideCapacity="12" startPos="26.44" endPos="74.44"/>
    <parkingArea id="parkingArea_-27166421#4_0_1039" lane="-27166421#4_0" roadsideCapacity="5" startPos="38.74" endPos="63.74"/>
    <parkingArea id="parkingArea_-27166421#5_0_1037" lane="-27166421#5_0" roadsideCapacity="8" startPos="28.60" endPos="68.60"/>
    <parkingArea id="parkingArea_-27166421#6_0_1035" lane="-27166421#6_0" roadsideCapacity="8" startPos="22.31" endPos="62.31"/>
    <parkingArea id="parkingArea_-27166421#8_0_1033" lane="-27166421#8_0" roadsideCapacity="10" startPos="18.72" endPos="68.72"/>
    <parkingArea id="parkingArea_-27167270#0_0_1195" lane="-27167270#0_0" roadsideCapacity="1" startPos="33.63" endPos="38.63"/>
    <parkingArea id="parkingArea_-27167270#1_0_1193" lane="-27167270#1_0" roadsideCapacity="4" startPos="45.84" endPos="61.84"/>
    <parkingArea id="parkingArea_-27397692_0_397" lane="-27397692_0" roadsideCapacity="19" startPos="77.61" endPos="137.61"/>
    <parkingArea id="parkingArea_-27398032#0_0_399" lane="-27398032#2_0" roadsideCapacity="35" startPos="271.85" endPos="341.85"/>
    <parkingArea id="parkingArea_-27400588#2_0_270" lane="-27400588#2_0" roadsideCapacity="8" startPos="53.60" endPos="93.60"/>
    <parkingArea id="parkingArea_-27570786#0_0_249" lane="-27570786#1_0" roadsideCapacity="5" startPos="129.66" endPos="154.66"/>
    <parkingArea id="parkingArea_-27570786#1_0_247" lane="-27570786#1_0" roadsideCapacity="4" startPos="52.16" endPos="64.16"/>
    <parkingArea id="parkingArea_-27570798#0_0_262" lane="-27570798#1_0" roadsideCapacity="11" startPos="32.68" endPos="76.68"/>
    <parkingArea id="parkingArea_-27570798#4_0_237" lane="-27570798#4_0" roadsideCapacity="12" startPos="51.54" endPos="87.54"/>
    <parkingArea id="parkingArea_-27570802#1_0_277" lane="-27570802#1_0" roadsideCapacity="29" startPos="99.54" endPos="186.54"/>
    <parkingArea id="parkingArea_-27571801_0_415" lane="-27571801_0" roadsideCapacity="10" startPos="57.26" endPos="87.26"/>
    <parkingArea id="parkingArea_-278995391#3_0_107" lane="-278995391#3_0" roadsideCapacity="9" startPos="57.81" endPos="102.81"/>
    <parkingArea id="parkingArea_-278995391#6_0_105" lane="-278995391#6_0" roadsideCapacity="18" startPos="27.71" endPos="99.71"/>
    <parkingArea id="parkingArea_-28231602#1_0_19" lane="-28231602#1_0" roadsideCapacity="12" startPos="7.58" endPos="91.58"/>