<?xml version="1.0" encoding="UTF-8"?>

<!-- generated on Wed 10 Jul 2019 11:42:26 AM PDT by Eclipse SUMO netedit Version v1_0_1+0000-b43a3e4816
<configuration xmlns:xsi="http://www.w3.org/2001/XMLSchema-instance" xsi:noNamespaceSchemaLocation="http://sumo.dlr.de/xsd/netconvertConfiguration.xsd">

    <input>
        <sumo-net-file value="san_francisco.net.xml"/>
    </input>

    <output>
        <output-file value="san_francisco.net.xml"/>
    </output>

    <processing>
        <offset.disable-normalization value="true"/>
        <lefthand value="false"/>
    </processing>

    <junctions>
        <no-internal-links value="true"/>
        <no-turnarounds value="true"/>
        <junctions.corner-detail value="0"/>
        <junctions.limit-turn-speed value="-1"/>
        <rectangular-lane-cut value="false"/>
    </junctions>

    <pedestrian>
        <walkingareas value="false"/>
    </pedestrian>

</configuration>
-->

<net version="1.0" xmlns:xsi="http://www.w3.org/2001/XMLSchema-instance" xsi:noNamespaceSchemaLocation="http://sumo.dlr.de/xsd/net_file.xsd">

    <location netOffset="-549867.32,-4179840.29" convBoundary="885.18,111.64,5855.25,4941.11" origBoundary="-122.435008,37.747669,-122.316016,37.811375" projParameter="+proj=utm +zone=10 +ellps=WGS84 +datum=WGS84 +units=m +no_defs"/>

    <edge id="-100400941#0" from="65295328" to="65295324" priority="6" type="highway.tertiary">
        <lane id="-100400941#0_0" index="0" disallow="tram rail_urban rail rail_electric ship" speed="11.18" length="146.91" shape="1725.44,2994.15 1856.19,3016.17"/>
    </edge>
    <edge id="-100400941#1" from="65295332" to="65295328" priority="6" type="highway.tertiary">
        <lane id="-100400941#1_0" index="0" disallow="tram rail_urban rail rail_electric ship" speed="11.18" length="147.79" shape="1579.67,2969.55 1711.24,2991.75"/>
    </edge>
    <edge id="-100400942#0" from="65307381" to="65295311" priority="6" type="highway.tertiary">
        <lane id="-100400942#0_0" index="0" disallow="tram rail_urban rail rail_electric ship" speed="11.18" length="101.56" shape="2134.71,3160.25 2147.95,3074.09"/>
    </edge>
    <edge id="-100400942#1" from="65332833" to="65307381" priority="6" type="highway.tertiary">
        <lane id="-100400942#1_0" index="0" disallow="tram rail_urban rail rail_electric ship" speed="11.18" length="100.55" shape="2118.06,3259.32 2132.41,3174.49"/>
    </edge>
    <edge id="-100400944" from="65295311" to="65332818" priority="6" type="highway.tertiary">
        <lane id="-100400944_0" index="0" disallow="tram rail_urban rail rail_electric ship" speed="11.18" length="107.96" shape="2150.23,3059.79 2165.44,2967.48"/>
    </edge>
    <edge id="-100400946" from="65295314" to="65295311" priority="6" type="highway.tertiary">
        <lane id="-100400946_0" index="0" disallow="tram rail_urban rail rail_electric ship" speed="11.18" length="145.39" shape="2014.80,3041.91 2143.78,3064.36"/>
    </edge>
    <edge id="-111049101" from="65349622" to="65317569" priority="4" type="highway.residential">
        <lane id="-111049101_0" index="0" disallow="tram rail_urban rail rail_electric ship" speed="11.18" length="79.34" shape="1953.38,929.91 1904.10,978.09"/>
    </edge>
    <edge id="-111089307#0" from="65306847" to="65364094" priority="4" type="highway.residential" shape="1483.59,808.23 1380.25,863.97 1375.79,865.36 1361.92,865.79">
        <lane id="-111089307#0_0" index="0" disallow="tram rail_urban rail rail_electric ship" speed="11.18" length="135.96" shape="1475.14,814.61 1380.87,865.45 1376.06,866.95 1361.97,867.39"/>
    </edge>
    <edge id="-111089307#1" from="65312164" to="65306847" priority="4" type="highway.residential">
        <lane id="-111089307#1_0" index="0" disallow="tram rail_urban rail rail_electric ship" speed="11.18" length="73.85" shape="1543.05,778.00 1493.57,804.67"/>
    </edge>
    <edge id="-111089307#2" from="65317576" to="65312164" priority="4" type="highway.residential">
        <lane id="-111089307#2_0" index="0" disallow="tram rail_urban rail rail_electric ship" speed="11.18" length="119.10" shape="1645.04,723.01 1555.73,771.17"/>
    </edge>
    <edge id="-111089307#3" from="65289131" to="65317576" priority="4" type="highway.residential">
        <lane id="-111089307#3_0" index="0" disallow="tram rail_urban rail rail_electric ship" speed="11.18" length="66.49" shape="1706.43,689.92 1663.41,713.11"/>
    </edge>
    <edge id="-111089307#4" from="65317763" to="65289131" priority="4" type="highway.residential" shape="1823.24,625.12 1764.13,656.99 1711.96,685.12">
        <lane id="-111089307#4_0" index="0" disallow="tram rail_urban rail rail_electric ship" speed="11.18" length="126.42" shape="1817.65,629.95 1764.89,658.40 1719.11,683.08"/>
    </edge>
    <edge id="-111547662#2" from="65293746" to="1723738829" priority="7" type="highway.secondary" shape="2199.60,1838.82 2151.99,1886.39 2112.58,1925.44 2074.03,1963.75 2054.83,1974.22">
        <lane id="-111547662#2_0" index="0" disallow="tram rail_urban rail rail_electric ship" speed="11.18" length="199.00" shape="2195.63,1849.57 2155.38,1889.79 2115.96,1928.85 2076.93,1967.64 2068.11,1972.45"/>
        <lane id="-111547662#2_1" index="1" disallow="tram rail_urban rail rail_electric ship" speed="11.18" length="199.00" shape="2193.37,1847.31 2153.12,1887.52 2113.71,1926.58 2075.00,1965.05 2066.58,1969.64"/>
    </edge>
    <edge id="-111550910#0" from="260193222" to="260193349" priority="4" type="highway.residential">
        <lane id="-111550910#0_0" index="0" disallow="tram rail_urban rail rail_electric ship" speed="11.18" length="26.76" shape="3992.86,1938.45 4007.47,1937.32"/>
    </edge>
    <edge id="-111550910#1" from="65334467" to="260193222" priority="4" type="highway.residential" shape="3870.13,1878.56 3887.40,1897.07 3895.76,1905.96 3904.40,1914.13 3914.08,1921.75 3923.97,1928.28 3933.85,1933.46 3945.16,1937.80 3955.80,1940.70 3965.33,1942.22 3975.67,1942.84 3985.73,1940.61">
        <lane id="-111550910#1_0" index="0" disallow="tram rail_urban rail rail_electric ship" speed="11.18" length="138.19" shape="3876.27,1882.79 3888.57,1895.98 3896.89,1904.83 3905.45,1912.92 3915.02,1920.45 3924.78,1926.90 3934.51,1932.00 3945.66,1936.28 3956.14,1939.13 3965.50,1940.63 3975.54,1941.23 3977.75,1940.74"/>
    </edge>
    <edge id="-111550910#2" from="65317058" to="65334467" priority="4" type="highway.residential" shape="3800.55,1807.98 3853.36,1861.63 3870.13,1878.56">
        <lane id="-111550910#2_0" index="0" disallow="tram rail_urban rail rail_electric ship" speed="11.18" length="99.11" shape="3809.02,1814.30 3854.50,1860.51 3866.19,1872.31"/>
    </edge>
    <edge id="-111550911#0" from="65334469" to="65317058" priority="4" type="highway.residential" shape="3753.59,1761.87 3792.83,1801.43 3800.55,1807.98">
        <lane id="-111550911#0_0" index="0" disallow="tram rail_urban rail rail_electric ship" speed="11.18" length="65.84" shape="3754.73,1760.74 3793.49,1799.82"/>
    </edge>
    <edge id="-111550911#1" from="603369654" to="65334469" priority="4" type="highway.residential">
        <lane id="-111550911#1_0" index="0" disallow="tram rail_urban rail rail_electric ship" speed="11.18" length="72.24" shape="3703.96,1709.56 3754.73,1760.74"/>
    </edge>
    <edge id="-111550911#2" from="65334471" to="603369654" priority="4" type="highway.residential">
        <lane id="-111550911#2_0" index="0" disallow="tram rail_urban rail rail_electric ship" speed="11.18" length="70.56" shape="3654.19,1659.54 3703.75,1709.35"/>
    </edge>
    <edge id="-111550911#3" from="65300049" to="65334471" priority="4" type="highway.residential" shape="3606.29,1612.29 3613.76,1620.88 3652.95,1660.56">
        <lane id="-111550911#3_0" index="0" disallow="tram rail_urban rail rail_electric ship" speed="11.18" length="67.15" shape="3612.37,1616.84 3614.93,1619.79 3653.98,1659.33"/>
    </edge>
    <edge id="-111560680" from="371151373" to="65351772" priority="7" type="highway.secondary">
        <lane id="-111560680_0" index="0" disallow="tram rail_urban rail rail_electric ship" speed="11.18" length="76.57" shape="2540.27,2172.99 2588.69,2222.40"/>
        <lane id="-111560680_1" index="1" disallow="tram rail_urban rail rail_electric ship" speed="11.18" length="76.57" shape="2537.99,2175.22 2586.41,2224.64"/>
    </edge>
    <edge id="-111560681#2" from="65317551" to="65306817" priority="4" type="highway.residential">
        <lane id="-111560681#2_0" index="0" disallow="tram rail_urban rail rail_electric ship" speed="11.18" length="191.30" shape="2371.57,1475.02 2247.13,1598.75"/>
    </edge>
    <edge id="-111560682" from="65308413" to="65329405" priority="7" type="highway.secondary" shape="3328.84,2974.83 3398.07,3043.61 3404.38,3053.10">
        <lane id="-111560682_0" index="0" disallow="tram rail_urban rail rail_electric ship" speed="11.18" length="108.98" shape="3336.22,2975.40 3401.80,3040.55 3404.56,3044.70"/>
        <lane id="-111560682_1" index="1" disallow="tram rail_urban rail rail_electric ship" speed="11.18" length="108.98" shape="3333.97,2977.67 3399.31,3042.59 3401.89,3046.47"/>
    </edge>
    <edge id="-111586254#3" from="65303538" to="1271001348" priority="7" type="highway.secondary" shape="2485.59,2799.55 2490.91,2767.30 2494.21,2748.59 2496.92,2732.58 2502.40,2696.87">
        <lane id="-111586254#3_0" index="0" disallow="tram rail_urban rail rail_electric ship" speed="11.18" length="104.05" shape="2485.18,2792.21 2489.33,2767.03 2492.63,2748.32 2495.34,2732.33 2499.72,2703.79"/>
    </edge>
    <edge id="-120256349" from="65329405" to="65303488" priority="7" type="highway.secondary">
        <lane id="-120256349_0" index="0" disallow="tram rail_urban rail rail_electric ship" speed="11.18" length="108.55" shape="3411.71,3053.68 3479.14,3121.68"/>
        <lane id="-120256349_1" index="1" disallow="tram rail_urban rail rail_electric ship" speed="11.18" length="108.55" shape="3409.44,3055.93 3476.87,3123.93"/>
    </edge>
    <edge id="-121785555" from="65318224" to="65333647" priority="4" type="highway.residential">
        <lane id="-121785555_0" index="0" disallow="tram rail_urban rail rail_electric ship" speed="11.18" length="113.24" shape="2988.08,1902.77 3059.14,1976.93"/>
    </edge>
    <edge id="-122498865" from="65321839" to="65306931" priority="4" type="highway.residential">
        <lane id="-122498865_0" index="0" disallow="tram rail_urban rail rail_electric ship" speed="11.18" length="66.21" shape="2328.43,1982.92 2288.84,2022.24"/>
    </edge>
    <edge id="-131700725" from="65355354" to="300662230" priority="1" type="highway.track">
        <lane id="-131700725_0" index="0" disallow="tram rail_urban rail rail_electric ship" speed="5.56" length="145.06" shape="3255.49,1113.64 3180.76,1050.56"/>
    </edge>
    <edge id="-133376113#0" from="2166924255" to="295185114" priority="5" type="highway.unclassified" shape="1908.11,3632.18 1907.05,3638.60 1906.03,3644.73">
        <lane id="-133376113#0_0" index="0" disallow="tram rail_urban rail rail_electric ship" speed="11.18" length="12.72" shape="1909.69,3632.44 1908.80,3637.81"/>
    </edge>
    <edge id="-133376113#1" from="295185200" to="2166924255" priority="5" type="highway.unclassified">
        <lane id="-133376113#1_0" index="0" disallow="tram rail_urban rail rail_electric ship" speed="11.18" length="18.02" shape="1911.72,3620.17 1909.69,3632.44"/>
    </edge>
    <edge id="-133376113#2" from="65326714" to="295185200" priority="5" type="highway.unclassified">
        <lane id="-133376113#2_0" index="0" disallow="tram rail_urban rail rail_electric ship" speed="11.18" length="79.08" shape="1924.36,3543.75 1913.52,3609.29"/>
    </edge>
    <edge id="-133376114#1" from="65326716" to="65326714" priority="5" type="highway.unclassified" shape="1940.11,3438.81 1932.63,3485.60 1923.96,3536.38">
        <lane id="-133376114#1_0" index="0" disallow="tram rail_urban rail rail_electric ship" speed="11.18" length="98.90" shape="1940.79,3444.68 1934.21,3485.86 1926.75,3529.54"/>
    </edge>
    <edge id="-133376114#2" from="65326722" to="65326716" priority="5" type="highway.unclassified" shape="1957.44,3340.62 1957.30,3341.82 1947.56,3399.80 1940.11,3438.81">
        <lane id="-133376114#2_0" index="0" disallow="tram rail_urban rail rail_electric ship" speed="11.18" length="99.71" shape="1958.16,3346.36 1949.13,3400.08 1942.76,3433.49"/>
    </edge>
    <edge id="-133376120#0" from="65343994" to="65343985" priority="5" type="highway.unclassified">
        <lane id="-133376120#0_0" index="0" disallow="tram rail_urban rail rail_electric ship" speed="11.18" length="49.63" shape="1771.13,3553.81 1777.25,3519.13"/>
    </edge>
    <edge id="-133376120#1" from="65333898" to="65343994" priority="5" type="highway.unclassified" shape="1763.27,3617.37 1763.61,3606.83 1771.46,3561.13">
        <lane id="-133376120#1_0" index="0" disallow="tram rail_urban rail rail_electric ship" speed="11.18" length="56.91" shape="1761.92,3609.57 1762.01,3606.67 1768.66,3567.99"/>
    </edge>
    <edge id="-133376120#10" from="65323324" to="65322669" priority="5" type="highway.unclassified">
        <lane id="-133376120#10_0" index="0" disallow="tram rail_urban rail rail_electric ship" speed="11.18" length="53.05" shape="1685.28,4074.70 1691.67,4036.60"/>
    </edge>
    <edge id="-133376120#11" from="65336082" to="65323324" priority="5" type="highway.unclassified">
        <lane id="-133376120#11_0" index="0" disallow="tram rail_urban rail rail_electric ship" speed="11.18" length="52.28" shape="1676.66,4126.27 1682.90,4088.91"/>
    </edge>
    <edge id="-133376120#12" from="65344009" to="65336082" priority="5" type="highway.unclassified">
        <lane id="-133376120#12_0" index="0" disallow="tram rail_urban rail rail_electric ship" speed="11.18" length="103.12" shape="1659.17,4227.85 1674.24,4140.51"/>
    </edge>
    <edge id="-133376120#13" from="1582797185" to="65344009" priority="5" type="highway.unclassified">
        <lane id="-133376120#13_0" index="0" disallow="tram rail_urban rail rail_electric ship" speed="11.18" length="86.58" shape="1643.41,4320.35 1656.72,4242.14"/>
    </edge>
    <edge id="-133376120#14" from="65317133" to="1582797185" priority="5" type="highway.unclassified">
        <lane id="-133376120#14_0" index="0" disallow="tram rail_urban rail rail_electric ship" speed="11.18" length="18.53" shape="1643.30,4321.00 1643.41,4320.35"/>
    </edge>
    <edge id="-133376120#4" from="612031523" to="65333898" priority="5" type="highway.unclassified" shape="1730.64,3821.74 1745.01,3727.67 1746.61,3718.73 1748.69,3707.34 1752.37,3687.73 1762.42,3627.98 1763.27,3617.37">
        <lane id="-133376120#4_0" index="0" disallow="tram rail_urban rail rail_electric ship" speed="11.18" length="207.01" shape="1730.12,3814.53 1743.43,3727.41 1745.04,3718.45 1747.12,3707.05 1750.79,3687.45 1760.83,3627.78 1761.07,3624.79"/>
    </edge>
    <edge id="-133376120#5" from="600650001" to="612031523" priority="5" type="highway.unclassified">
        <lane id="-133376120#5_0" index="0" disallow="tram rail_urban rail rail_electric ship" speed="11.18" length="9.13" shape="1727.33,3830.24 1727.70,3828.34"/>
    </edge>
    <edge id="-133376120#7" from="65312664" to="600650001" priority="5" type="highway.unclassified" shape="1710.73,3927.25 1719.53,3876.14 1728.87,3830.70">
        <lane id="-133376120#7_0" index="0" disallow="tram rail_urban rail rail_electric ship" speed="11.18" length="98.25" shape="1710.38,3919.87 1717.96,3875.84 1727.27,3830.52"/>
    </edge>
    <edge id="-133376120#9" from="65322669" to="65312664" priority="5" type="highway.unclassified" shape="1694.44,4029.76 1701.96,3979.49 1710.73,3927.25">
        <lane id="-133376120#9_0" index="0" disallow="tram rail_urban rail rail_electric ship" speed="11.18" length="103.80" shape="1693.93,4022.34 1700.38,3979.24 1707.96,3934.09"/>
    </edge>
    <edge id="-133733582#3" from="65327138" to="65356392" priority="5" type="highway.unclassified" shape="1364.07,1552.43 1234.09,1530.64 1226.47,1529.36 1212.50,1527.03">
        <lane id="-133733582#3_0" index="0" disallow="tram rail_urban rail rail_electric ship" speed="11.18" length="149.99" shape="1356.71,1552.82 1233.83,1532.22 1226.21,1530.94 1220.20,1529.94"/>
    </edge>
    <edge id="-133755923#0" from="65293797" to="65303721" priority="4" type="highway.residential" shape="3024.10,1028.11 2875.77,879.34 2869.69,872.76 2863.72,866.70 2833.76,835.98 2826.00,828.13">
        <lane id="-133755923#0_0" index="0" disallow="tram rail_urban rail rail_electric ship" speed="11.18" length="281.50" shape="3017.75,1024.01 2874.62,880.45 2868.53,873.86 2862.58,867.82 2832.62,837.10 2832.16,836.64"/>
    </edge>
    <edge id="-133755923#1" from="65325061" to="65293797" priority="4" type="highway.residential" shape="3215.74,1220.32 3207.10,1212.23 3028.72,1033.02 3024.10,1028.11">
        <lane id="-133755923#1_0" index="0" disallow="tram rail_urban rail rail_electric ship" speed="11.18" length="271.43" shape="3209.25,1216.43 3205.99,1213.38 3027.82,1034.38"/>
    </edge>
    <edge id="-133755930#0" from="65300043" to="260193156" priority="9" type="highway.primary">
        <lane id="-133755930#0_0" index="0" disallow="tram rail_urban rail rail_electric ship" speed="11.18" length="70.79" shape="3751.39,1473.29 3709.89,1513.79"/>
        <lane id="-133755930#0_1" index="1" disallow="tram rail_urban rail rail_electric ship" speed="11.18" length="70.79" shape="3749.16,1471.00 3707.66,1511.50"/>
    </edge>
    <edge id="-133755930#1" from="2845162694" to="65300043" priority="9" type="highway.primary">
        <lane id="-133755930#1_0" index="0" disallow="tram rail_urban rail rail_electric ship" speed="11.18" length="16.00" shape="3766.85,1458.21 3759.39,1465.49"/>
        <lane id="-133755930#1_1" index="1" disallow="tram rail_urban rail rail_electric ship" speed="11.18" length="16.00" shape="3764.62,1455.92 3757.15,1463.20"/>
    </edge>
    <edge id="-133781749" from="65352339" to="65327144" priority="6" type="highway.tertiary" shape="1192.89,1733.02 1201.58,1734.42 1222.60,1737.78 1294.79,1749.24 1317.97,1753.03 1329.81,1755.04">
        <lane id="-133781749_0" index="0" disallow="tram rail_urban rail rail_electric ship" speed="11.18" length="138.68" shape="1193.14,1731.44 1201.83,1732.84 1222.85,1736.20 1295.04,1747.66 1318.23,1751.45 1322.99,1752.26"/>
    </edge>
    <edge id="-133781759#0" from="2908408448" to="65352337" priority="6" type="highway.tertiary">
        <lane id="-133781759#0_0" index="0" disallow="tram rail_urban rail rail_electric ship" speed="11.18" length="14.23" shape="1460.66,1776.75 1467.48,1777.82"/>
    </edge>
    <edge id="-133781759#1" from="267294252" to="2908408448" priority="6" type="highway.tertiary">
        <lane id="-133781759#1_0" index="0" disallow="tram rail_urban rail rail_electric ship" speed="11.18" length="83.89" shape="1378.23,1761.45 1460.44,1776.71"/>
    </edge>
    <edge id="-133781759#2" from="65327144" to="267294252" priority="6" type="highway.tertiary" shape="1329.81,1755.04 1340.51,1756.72 1377.80,1763.00">
        <lane id="-133781759#2_0" index="0" disallow="tram rail_urban rail rail_electric ship" speed="11.18" length="48.65" shape="1337.34,1754.60 1340.77,1755.14 1377.92,1761.40"/>
    </edge>
    <edge id="-141688972#0" from="239601901" to="65293779" priority="6" type="highway.tertiary">
        <lane id="-141688972#0_0" index="0" disallow="tram rail_urban rail rail_electric ship" speed="11.18" length="14.91" shape="2893.66,1171.03 2890.49,1167.83"/>
    </edge>
    <edge id="-141688972#1" from="65315481" to="239601901" priority="6" type="highway.tertiary" shape="3079.08,1355.80 2954.12,1229.74 2894.80,1169.90">
        <lane id="-141688972#1_0" index="0" disallow="tram rail_urban rail rail_electric ship" speed="11.18" length="261.76" shape="3072.87,1351.81 2952.98,1230.87 2893.66,1171.03"/>
    </edge>
    <edge id="-141688972#2" from="65315477" to="65315481" priority="6" type="highway.tertiary">
        <lane id="-141688972#2_0" index="0" disallow="tram rail_urban rail rail_electric ship" speed="11.18" length="276.64" shape="3267.64,1548.28 3083.01,1362.04"/>
    </edge>
    <edge id="-143617587" from="65334473" to="65325061" priority="4" type="highway.residential" shape="3411.18,1416.35 3403.27,1408.43 3223.98,1228.59 3215.74,1220.32">
        <lane id="-143617587_0" index="0" disallow="tram rail_urban rail rail_electric ship" speed="11.18" length="276.81" shape="3402.78,1410.21 3402.14,1409.56 3222.85,1229.72 3219.63,1226.49"/>
    </edge>
    <edge id="-143617589#1" from="65319456" to="65300049" priority="4" type="highway.residential" shape="3536.96,1542.67 3559.89,1565.69 3606.29,1612.29">
        <lane id="-143617589#1_0" index="0" disallow="tram rail_urban rail rail_electric ship" speed="11.18" length="98.25" shape="3538.09,1541.54 3561.02,1564.56 3602.31,1606.02"/>
    </edge>
    <edge id="-143617589#2" from="65291006" to="65319456" priority="4" type="highway.residential">
        <lane id="-143617589#2_0" index="0" disallow="tram rail_urban rail rail_electric ship" speed="11.18" length="41.39" shape="3509.00,1512.31 3538.09,1541.54"/>
    </edge>
    <edge id="-143617589#6" from="65334473" to="65291006" priority="4" type="highway.residential" shape="3411.18,1416.35 3420.50,1425.72 3428.45,1433.70 3474.21,1479.65 3502.57,1508.13 3507.76,1513.33">
        <lane id="-143617589#6_0" index="0" disallow="tram rail_urban rail rail_electric ship" speed="11.18" length="136.87" shape="3419.73,1422.68 3421.63,1424.59 3429.58,1432.57 3475.34,1478.52 3503.70,1507.00 3508.79,1512.09"/>
    </edge>
    <edge id="-143617593" from="65281097" to="65281916" priority="6" type="highway.tertiary" shape="2942.26,1491.42 2895.34,1537.95 2852.98,1579.95 2805.38,1627.13">
        <lane id="-143617593_0" index="0" disallow="tram rail_urban rail rail_electric ship" speed="11.18" length="192.75" shape="2936.00,1499.88 2896.47,1539.09 2854.11,1581.09 2815.03,1619.82"/>
    </edge>
    <edge id="-143666206" from="65297244" to="65297241" priority="4" type="highway.residential">
        <lane id="-143666206_0" index="0" disallow="tram rail_urban rail rail_electric ship" speed="11.18" length="145.31" shape="1726.07,4777.55 1855.25,4798.97"/>
    </edge>
    <edge id="-143666208#0" from="65326698" to="65297244" priority="4" type="highway.residential">
        <lane id="-143666208#0_0" index="0" disallow="tram rail_urban rail rail_electric ship" speed="11.18" length="105.55" shape="1735.64,4684.30 1721.45,4771.09"/>
    </edge>
    <edge id="-143666209#1" from="65296810" to="65326698" priority="4" type="highway.residential">
        <lane id="-143666209#1_0" index="0" disallow="tram rail_urban rail rail_electric ship" speed="11.18" length="105.20" shape="1752.42,4580.45 1738.98,4663.74"/>
    </edge>
    <edge id="-143666209#2" from="65279852" to="65296810" priority="4" type="highway.residential">
        <lane id="-143666209#2_0" index="0" disallow="tram rail_urban rail rail_electric ship" speed="11.18" length="52.28" shape="1761.28,4524.08 1755.69,4559.88"/>
    </edge>
    <edge id="-143666209#3" from="65303259" to="65279852" priority="4" type="highway.residential">
        <lane id="-143666209#3_0" index="0" disallow="tram rail_urban rail rail_electric ship" speed="11.18" length="52.49" shape="1769.04,4473.79 1763.00,4513.01"/>
    </edge>
    <edge id="-143666209#5" from="65317128" to="65303259" priority="4" type="highway.residential" shape="1787.34,4364.10 1773.95,4435.89 1768.56,4466.39">
        <lane id="-143666209#5_0" index="0" disallow="tram rail_urban rail rail_electric ship" speed="11.18" length="104.00" shape="1787.59,4371.51 1775.52,4436.18 1771.39,4459.55"/>
    </edge>
    <edge id="-143666209#6" from="65326700" to="65317128" priority="4" type="highway.residential">
        <lane id="-143666209#6_0" index="0" disallow="tram rail_urban rail rail_electric ship" speed="11.18" length="104.84" shape="1805.01,4268.07 1790.11,4357.24"/>
    </edge>
    <edge id="-143666212#1" from="65297241" to="65332866" priority="4" type="highway.residential">
        <lane id="-143666212#1_0" index="0" disallow="tram rail_urban rail rail_electric ship" speed="11.18" length="106.12" shape="1861.74,4794.32 1877.11,4707.22"/>
    </edge>
    <edge id="-144346316#2" from="65295336" to="65295332" priority="6" type="highway.tertiary" shape="1427.65,2945.48 1446.99,2948.71 1510.50,2959.20 1541.43,2964.55 1572.34,2969.94">
        <lane id="-144346316#2_0" index="0" disallow="tram rail_urban rail rail_electric ship" speed="11.18" length="146.74" shape="1435.01,2945.09 1447.25,2947.13 1510.77,2957.62 1541.70,2962.97 1565.50,2967.12"/>
    </edge>
    <edge id="-144346316#4" from="65295337" to="65295336" priority="6" type="highway.tertiary" shape="1281.80,2922.54 1392.83,2940.04 1407.90,2942.41 1427.65,2945.48">
        <lane id="-144346316#4_0" index="0" disallow="tram rail_urban rail rail_electric ship" speed="11.18" length="147.64" shape="1287.68,2921.85 1393.08,2938.46 1408.15,2940.83 1420.74,2942.79"/>
    </edge>
    <edge id="-144346316#5" from="65295340" to="65295337" priority="6" type="highway.tertiary">
        <lane id="-144346316#5_0" index="0" disallow="tram rail_urban rail rail_electric ship" speed="11.18" length="145.14" shape="1139.11,2895.98 1276.61,2920.01"/>
    </edge>
    <edge id="-144489136" from="1580501214" to="1723738833" priority="9" type="highway.primary">
        <lane id="-144489136_0" index="0" disallow="tram rail_urban rail rail_electric ship" speed="11.18" length="23.94" shape="2535.79,2485.72 2543.71,2482.33"/>
        <lane id="-144489136_1" index="1" disallow="tram rail_urban rail rail_electric ship" speed="11.18" length="23.94" shape="2537.05,2488.66 2544.97,2485.27"/>
    </edge>
    <edge id="-146155388" from="65303224" to="65303228" priority="4" type="highway.residential" shape="1347.93,4316.51 1340.68,4329.18 1330.95,4384.69 1329.21,4389.82 1326.99,4393.47">
        <lane id="-146155388_0" index="0" disallow="tram rail_urban rail rail_electric ship" speed="11.18" length="80.56" shape="1341.90,4331.47 1332.50,4385.09 1330.67,4390.50 1328.87,4393.46"/>
    </edge>
    <edge id="-146155465" from="65305859" to="612027338" priority="4" type="highway.residential">
        <lane id="-146155465_0" index="0" disallow="tram rail_urban rail rail_electric ship" speed="11.18" length="46.00" shape="2569.65,4065.75 2603.18,4071.28"/>
    </edge>
    <edge id="-148846997#1" from="65322667" to="330667995" priority="4" type="highway.residential" shape="1837.91,4053.99 1868.63,4059.17 1945.02,4072.08">
        <lane id="-148846997#1_0" index="0" disallow="tram rail_urban rail rail_electric ship" speed="11.18" length="108.63" shape="1845.34,4053.62 1868.90,4057.59 1934.66,4068.71"/>
    </edge>
    <edge id="-148846997#4" from="65322669" to="65322667" priority="4" type="highway.residential">
        <lane id="-148846997#4_0" index="0" disallow="tram rail_urban rail rail_electric ship" speed="11.18" length="145.50" shape="1701.81,4029.38 1831.06,4051.21"/>
    </edge>
    <edge id="-148846997#6" from="65322675" to="65322669" priority="4" type="highway.residential" shape="1548.51,4005.12 1644.05,4021.25 1694.44,4029.76">
        <lane id="-148846997#6_0" index="0" disallow="tram rail_urban rail rail_electric ship" speed="11.18" length="148.00" shape="1555.88,4004.74 1644.32,4019.67 1687.55,4026.97"/>
    </edge>
    <edge id="-148846997#8" from="65322684" to="65322675" priority="4" type="highway.residential" shape="1402.41,3980.45 1414.11,3982.42 1485.44,3994.47 1548.51,4005.12">
        <lane id="-148846997#8_0" index="0" disallow="tram rail_urban rail rail_electric ship" speed="11.18" length="148.17" shape="1409.81,3980.07 1414.38,3980.84 1485.71,3992.89 1541.67,4002.34"/>
    </edge>
    <edge id="-148846998#0" from="330668008" to="65322660" priority="4" type="highway.residential">
        <lane id="-148846998#0_0" index="0" disallow="tram rail_urban rail rail_electric ship" speed="11.18" length="27.49" shape="1966.99,4074.01 1976.12,4075.42"/>
    </edge>
    <edge id="-148846998#1" from="330667995" to="330668008" priority="4" type="highway.residential">
        <lane id="-148846998#1_0" index="0" disallow="tram rail_urban rail rail_electric ship" speed="11.18" length="11.00" shape="1950.53,4071.39 1950.73,4071.43"/>
    </edge>
    <edge id="-148846999#1" from="65332861" to="65364427" priority="4" type="highway.residential" shape="1949.29,4284.45 2040.93,4299.34 2092.49,4308.06">
        <lane id="-148846999#1_0" index="0" disallow="tram rail_urban rail rail_electric ship" speed="11.18" length="145.13" shape="1956.65,4284.02 2041.19,4297.76 2085.63,4305.28"/>
    </edge>
    <edge id="-148846999#2" from="65326700" to="65332861" priority="4" type="highway.residential" shape="1804.62,4260.69 1868.21,4271.18 1949.29,4284.45">
        <lane id="-148846999#2_0" index="0" disallow="tram rail_urban rail rail_electric ship" speed="11.18" length="146.61" shape="1811.98,4260.28 1868.47,4269.60 1942.42,4281.70"/>
    </edge>
    <edge id="-148847000#3" from="65322658" to="65312651" priority="4" type="highway.residential" shape="2127.20,4101.65 2130.79,4079.90 2137.30,4041.75 2143.25,4006.86 2144.71,3998.34">
        <lane id="-148847000#3_0" index="0" disallow="tram rail_urban rail rail_electric ship" speed="11.18" length="104.78" shape="2126.79,4094.28 2129.21,4079.64 2135.72,4041.48 2141.67,4006.59 2141.91,4005.19"/>
    </edge>
    <edge id="-148847000#4" from="65336069" to="65322658" priority="4" type="highway.residential" shape="2109.79,4204.22 2119.24,4154.04 2127.20,4101.65">
        <lane id="-148847000#4_0" index="0" disallow="tram rail_urban rail rail_electric ship" speed="11.18" length="104.05" shape="2109.56,4196.78 2117.66,4153.77 2124.51,4108.68"/>
    </edge>
    <edge id="-148847000#5" from="65364427" to="65336069" priority="4" type="highway.residential">