<additional xmlns:xsi="http://www.w3.org/2001/XMLSchema-instance" xsi:noNamespaceSchemaLocation="http://sumo-sim.org/xsd/additional_file.xsd">

<poly id="0" color="0.4875039251725778,0.3058967384602225,0.23464036591387372" fill="true" layer="0" shape="902.7378920492483,3468.523474390153 888.228176396573,3465.6601192643866 871.2791165738599,3572.8480358584784 864.0304994327016,3620.402473691851 854.0042761537479,3675.8177450899966 842.4131079429062,3742.3185910442844 836.1142858724343,3778.6726257186383 819.1842252488714,3882.976017097011 831.6813993803225,3883.718726294581 967.9728325117612,3911.4103160793893 1108.9527326301904,3935.360792800784 1166.2918604122242,3945.480114739854 1256.526934386231,3960.575235119555 1325.47753438598,3972.210120390635 1401.5561121444916,3984.333921647165 1407.2930021990323,3939.6551927570254 1416.814522065688,3881.01979675889 1425.8324374652002,3832.5891301664524 1433.7126786975423,3783.0417953897268 1452.1612816310953,3676.5300137749873 1461.1995896868175,3624.881787183229 1471.560078286915,3573.019942956511 1473.4774351344677,3562.047524561174 1439.4396167316008,3556.398484146688 1325.7212206016993,3536.717206150759 1254.7406005155062,3525.2916006543674 1182.523836585926,3514.413715166971 1096.1203952283831,3505.3348266012035 1036.8397769632284,3495.4259396796115 1015.4650146445492,3492.1869922452606 1010.5580204068683,3488.384274757933 902.7378920492483,3468.523474390153 "/>
<poly id="1" color="0.8027524662542348,0.09644404247008509,0.36359997409862466" fill="true" layer="0" shape="3077.8581199155888,3008.1201303144917 3035.8710300233215,2965.0218144617975 3011.2170642550336,2992.3800265663303 3003.0826338577317,2997.653584636282 2979.7986315253656,3099.692936617881 2966.1588129420998,3208.229611521587 2956.7540938444436,3260.5396821545437 2949.5791353776585,3308.4259465341456 3049.393490712275,3326.930581518449 3148.42509422882,3343.878085303586 3252.0703264718177,3355.3089214023203 3263.412807748071,3357.7122262082994 3276.6688990977127,3281.904988652095 3280.369835894089,3254.1903099953197 3280.9266628789483,3249.755683892872 3281.5716767504346,3245.3217036211863 3282.4393146949587,3233.6771244993433 3280.550282981945,3226.231010741554 3282.6219081776217,3219.0323402094655 3284.6640842871275,3216.3826143597253 3280.987726870808,3213.030175465625 3274.5075716266874,3207.5516089005396 3263.8327291986207,3197.1640432504937 3257.1822207609657,3190.7966356137767 3191.3000072696013,3125.90718605835 3189.026565870503,3123.4516275245696 3142.4944302502554,3075.330520827789 3101.654725695378,3031.906414514873 3098.592365095741,3028.8908774852753 3077.8581199155888,3008.1201303144917 "/>
<poly id="2" color="0.7713426654174159,0.2927870171877063,0.7326472553600989" fill="true" layer="0" shape="2243.9654188031564,3392.8026750129648 2259.284034135635,3295.7039169198833 2266.036025819136,3258.3551460457966 2280.5046916453866,3198.1986241233535 2270.4595392977353,3171.616975490935 2268.737988808658,3165.392642972525 2270.19799641578,3157.3022227422334 2273.672461070353,3150.888913202565 2288.9822936661076,3138.6699889823794 2298.429424727452,3092.905807705596 2286.8172269036295,3091.2789152334444 2247.9446336172987,3084.153515013866 2241.6073756576516,3083.7805377128534 2234.6392375159776,3085.7335819900036 2220.3869615705917,3083.868114485871 2187.7480004852405,3079.556447517127 2178.332709570299,3078.6092379111797 2155.459105317248,3075.579822113272 2146.135963755776,3073.967592444271 2134.0171233348083,3152.557431562338 2135.995077399304,3160.0038066878915 2133.8022299973527,3172.638843919616 2123.0120357556734,3236.0363288843073 2116.2852030091453,3269.5019907266833 2099.9885717467405,3368.3700829157606 2072.1050288338447,3364.0887863817625 2027.863564744941,3356.8197028469294 1956.8891682535177,3344.2784865428694 1947.2284124748548,3396.366083736997 1940.5918692767154,3443.590715236962 1932.6090136158746,3494.912236141041 1924.2131150987698,3541.903928290587 1995.1857665178832,3554.444906545803 2042.7668001685524,3562.5116148218513 2067.9254105475266,3565.998878994491 2139.1814391164808,3575.4361818837933 2174.6251993482,3581.429843866732 2187.460888155154,3584.3958258833736 2211.913616200094,3588.1010041669942 2228.8218641038984,3490.1246332228184 2243.9654188031564,3392.8026750129648 "/>
<poly id="3" color="0.5325035005542547,0.4238908947464465,0.5541690862263393" fill="true" layer="0" shape="2495.089038322796,4483.301820125431 2515.319099337212,4375.472021002788 2505.9450928824954,4271.448086041957 2517.107724747737,4274.292987803929 2523.4369126014644,4275.775726680178 2524.584124762332,4275.3391778813675 2526.6315300633432,4271.801703494508 2528.5950005225604,4267.597913349979 2537.02641112078,4270.758342831396 2537.5418769972166,4272.758808021434 2541.573103434406,4275.669291851576 2544.4760372351157,4276.020592583343 2549.6847839310067,4273.723778409883 2554.366134896525,4271.312643609941 2559.474774049362,4270.901337290648 2562.2742176014,4273.693020789418 2564.643310685875,4274.928633708041 2572.832488438231,4274.64792874828 2577.505360054318,4273.568234339822 2606.101903770701,4275.969573695678 2610.4091863573994,4276.9956330657005 2614.450213656877,4278.352807455696 2616.376300781849,4280.029383535031 2617.1359838423086,4285.138221570756 2619.0600251314463,4287.147594612557 2620.9924782888265,4287.825699983165 2623.990579118952,4287.06808280712 2626.5533891388914,4285.53110503871 2629.022599613527,4284.881078613456 2635.7082359135384,4285.700476413593 2638.1695007866947,4286.270996947773 2639.393486886518,4287.6102075339295 2639.9842005631654,4291.608334286604 2641.462403924088,4294.502649477683 2674.697727208608,4301.150105280802 2690.4429353376618,4192.9592176801525 2698.0872264655773,4153.952096610796 2707.432501073228,4096.759275523946 2724.305877402192,3991.238630068954 2740.902194176684,3887.8242438789457 2694.213961115107,3878.2058193739504 2687.2655075239018,3877.1628045230173 2663.076481033815,3873.679702578578 2632.464975968469,3869.490042223595 2596.9353671228746,3863.382906694431 2547.063360831351,3855.963984105736 2458.0498999649426,3842.748817238491 2448.9964363699546,3895.838327105157 2439.5154326709453,3946.9279999812134 2422.6025811695727,4045.347932305187 2409.7595846017357,4140.686974183656 2408.068582055741,4143.5610859803855 2405.850797836785,4146.209920839407 2403.2864985242486,4147.968913607299 2400.7286220346577,4148.7293420122005 2398.0861718552187,4148.93440935621 2385.3303776372923,4147.4110151031055 2377.9438983494183,4146.032693303656 2336.865733068087,4140.446223591454 2327.807267406024,4138.946295310743 2301.2475966910133,4134.5615951819345 2266.601373042795,4128.128607041668 2234.5032108860323,4122.488492787816 2199.06596136,4115.828921781853 2162.2976874292362,4110.825327903032 2127.737882428919,4104.615309254266 2034.252913790173,4088.824535178952 1983.9640229688957,4077.85583101213 1958.8049341677688,4074.7015825081617 1947.2813880626345,4073.186618729029 1937.9944383749971,4080.0073164626956 1855.0508685181849,4151.82771823369 1844.609921490308,4160.1946254237555 1832.4032695842907,4169.327115937136 1830.5029810447013,4177.525835592765 1815.172823361354,4193.406894581858 1799.2465619023424,4206.06664664112 1794.3748177269008,4210.807036516722 1741.7178885994945,4254.636427568272 1640.910717657418,4339.883239291143 1739.0522936490597,4356.808412083425 1785.5717644067481,4364.978125275113 1850.7372141771484,4375.928116785828 1928.9919017687207,4391.288185186684 2071.2639160802355,4418.03727977071 2128.8028303260216,4423.726504630875 2213.758206857601,4437.356421452016 2290.8645130940713,4453.156578297727 2355.4152148391586,4449.793508099392 2383.794299388537,4458.628226906527 2426.058874452603,4471.212580624968 2495.089038322796,4483.301820125431 "/>
<poly id="4" color="0.11550705230292357,0.6842514037194846,0.8314202473107523" fill="true" layer="0" shape="3458.3806756667327,3964.1186795821413 3453.322113375063,3956.7628950476646 3448.089825142757,3962.609579389915 3439.393568764208,3959.5575082120486 3354.838792072027,3897.097627314739 3353.398869476281,3888.3228941732086 3342.436572635779,3881.705718505662 3335.1294939985964,3881.6583981746808 3261.5456105660414,3824.2634089691564 3255.824621841428,3810.3572432072833 3320.4505008168053,3728.1135218995623 3338.0445768226637,3730.3353755110875 3496.916686561657,3845.869048447814 3520.557120690006,3811.737427010201 3356.6013722191565,3692.619895372074 3353.6834195511183,3680.950839393772 3356.7197603961686,3674.313206736464 3368.423994485638,3675.1656276946887 3385.164218052523,3686.92412157543 3396.996166013647,3668.0273888274096 3381.659599041799,3657.0547287762165 3378.1211121064844,3646.047273097094 3382.565395693411,3639.5297020808794 3552.2797609139234,3766.7848258372396 3575.8824617328355,3738.533684783615 3574.5307654292556,3729.7595496065915 3539.5644940780476,3704.6786755663343 3497.325102402596,3660.688603886869 3416.455891879741,3599.6944927047007 3424.6410936011234,3586.5439442200586 3466.8874979851535,3615.998583019711 3472.031270389911,3610.2622960512526 3501.580318329041,3574.72654394852 3569.5939750970574,3473.0897313840687 3696.9084960817127,3540.6008766046725 3730.8343250229955,3495.663282400463 3627.641926018405,3387.809919964988 3636.444020383293,3374.6636365717277 3657.6789197532926,3385.7860758509487 3667.8874841131037,3386.518241656013 3691.4959779566852,3357.6017813519575 3668.2237626869464,3334.8155991150998 3688.9277230933076,3305.7693169442937 3658.4833971095504,3302.6865249932744 3623.525703020394,3276.0520733385347 3608.215279525961,3260.973680021707 3558.9800188200315,3209.282089004293 3496.3700322504155,3264.7970207706094 3468.563230672502,3289.470584723633 3423.7114351807395,3335.7808881513774 3418.3149391681654,3339.74030282069 3411.7860608014744,3341.8061905293725 3407.4813305829884,3340.3358751973137 3400.644064896158,3335.631574199535 3360.5642794817686,3297.6478141136467 3340.2837904458866,3274.992980023846 3293.933838230325,3226.2063793288544 3286.937470454024,3218.8383302707225 3284.6640842871275,3216.3826143597253 3282.6219081776217,3219.0323402094655 3280.550282981945,3226.231010741554 3282.4393146949587,3233.6771244993433 3281.5716767504346,3245.3217036211863 3280.9266628789483,3249.755683892872 3280.369835894089,3254.1903099953197 3276.6688990977127,3281.904988652095 3263.412807748071,3357.7122262082994 3252.0703264718177,3355.3089214023203 3148.42509422882,3343.878085303586 3049.393490712275,3326.930581518449 2949.5791353776585,3308.4259465341456 2939.2475261032814,3354.2946754195727 2936.206910409266,3375.3565116939135 2931.2732210804243,3403.2853481657803 2920.6931074827444,3460.469945009332 2912.939876858378,3502.471812541131 2909.286673612194,3522.974878226407 2895.768735153484,3599.0028888825327 2926.6409357816447,3603.8609935287386 2999.6754030514276,3624.079711525701 2980.660983428592,3719.6002119709738 2963.9294716063887,3816.1339728133753 3069.284682199359,3834.5638040415943 3086.957488184795,3838.2280461532064 3101.551010170835,3841.539597516414 3114.023814160959,3846.058024473954 3123.5040116555756,3850.446308007464 3135.523023926653,3857.070017515216 3147.881875029183,3865.5822438304313 3167.684662748128,3880.244787741918 3159.52346628136,3944.434827738907 3239.571877816925,3832.2213312592357 3254.9691711687483,3833.7631496647373 3332.1869234764017,3887.409042286221 3335.049081420875,3894.084799004253 3345.566237144638,3901.4757779161446 3350.4090144417714,3901.3962031798437 3440.7404132811353,3969.108275528066 3436.281802799087,3977.8448115955107 3445.0667014050996,3980.786479942035 3451.688137939782,3977.94461636059 3456.8416653081076,3970.6550131835975 3458.3806756667327,3964.1186795821413 "/>
<poly id="5" color="0.7009216400987337,0.8685250061153694,0.4988765587874884" fill="true" layer="0" shape="1784.344233818003,2582.382593666669 1639.0262162993895,2558.726729242597 1621.3919329185737,2661.026834359858 1603.1402784965467,2763.544995062519 1686.2639200147241,2777.268631791696 1751.3546909824945,2788.1062193461694 1892.794883652241,2811.6287785982713 1982.5925268060528,2828.0603418312967 2040.1201678274665,2837.2991740312427 2183.2491651257733,2858.06358434679 2192.6865389245795,2799.87248828914 2199.656128716655,2755.978721656371 2203.0346304186387,2736.9160282020457 2206.5839121919125,2732.6112920925952 2220.310835036682,2650.5920810708776 2074.823278894997,2626.2616800917313 1927.7262992644683,2605.6960748806596 1893.4199879954103,2600.154516873881 1857.2666628108127,2594.2686959444545 1840.7297952446388,2591.5018746661954 1784.344233818003,2582.382593666669 "/>
<poly id="6" color="0.8120281773383138,0.07548664279104778,0.22822959167896595" fill="true" layer="0" shape="3146.77963286906,2519.255417846609 3117.635364782531,2491.551195039414 3070.491999272839,2537.8486919626594 3028.3049798142165,2580.294935503509 2977.3586698467843,2629.3424143395387 2931.25787754904,2678.088338893838 2889.9550021769246,2720.2080460945144 2844.996275548823,2769.516605086159 2955.909980281256,2884.3994065523148 2969.3888869549846,2897.0237128916197 3015.3138755738037,2944.0303269177675 3035.8710300233215,2965.0218144617975 3091.0576226330595,2913.5609839428216 3122.7026757166022,2880.8111909101717 3142.123084833729,2859.522079751827 3175.3769706885796,2823.121372733731 3199.3919907003874,2799.4210042255 3223.938213273068,2775.280205097515 3230.4996096425457,2768.2215405185707 3247.601933764294,2751.466742242221 3261.7763725520344,2738.13268867461 3312.1188936061226,2687.3079319465905 3201.4437314447714,2576.749048119411 3191.5647338745184,2565.7008868418634 3146.77963286906,2519.255417846609 "/>
<poly id="7" color="0.2600914759565668,0.44276697520928754,0.8611120953034713" fill="true" layer="0" shape="2325.450793780037,2247.163513305597 2296.5692128889496,2219.131092845928 2288.149412560393,2241.6014308254234 2269.2721972765867,2344.114344106987 2254.2656319699017,2447.3173975399695 2237.0657626450993,2549.286190537736 2220.310835036682,2650.5920810708776 2206.5839121919125,2732.6112920925952 2203.0346304186387,2736.9160282020457 2199.656128716655,2755.978721656371 2192.6865389245795,2799.87248828914 2183.2491651257733,2858.06358434679 2190.8114963327534,2859.6648363904096 2256.499761092011,2873.2840369679034 2264.6804800607497,2874.5563242342323 2299.9519049596274,2880.438418179285 2324.489794847206,2884.921137381345 2333.7271187565057,2886.200190807227 2338.036492083338,2887.0042326534167 2401.7210943351965,2897.1722872238606 2469.9770369908074,2908.4793873778544 2500.1470194229623,2913.4422747665085 2510.2618630249053,2915.171031249687 2538.938469843124,2919.569728180766 2575.016813712544,2923.128136220388 2604.4858074227814,2927.532185310032 2612.997360545676,2876.8804269190878 2621.963562489138,2824.01239853492 2629.5595257298555,2778.902484261431 2639.4452644581906,2719.9380281111225 2647.3218674538657,2672.2778830667958 2656.2116921589477,2617.6342936400324 2667.814966111211,2606.9457999938168 2677.0210888664005,2599.3487434638664 2663.2721822840394,2587.499821125064 2660.2073706066003,2584.8173930472694 2627.0446947183227,2551.874425511807 2564.7548918430693,2488.2337235282175 2484.9248875506455,2399.406346362084 2461.9946198047837,2377.291634433437 2456.3042703414103,2372.0405795481056 2453.0632348051295,2369.3571213176474 2449.287466521957,2367.668849584181 2447.0080328729236,2366.1009964020923 2444.117734703934,2363.641588449478 2438.8696683234302,2358.0606171363033 2410.170735315769,2329.141243352089 2325.450793780037,2247.163513305597 "/>
<poly id="8" color="0.8790660799273595,0.28922364419545166,0.739585210811408" fill="true" layer="0" shape="3935.036194477696,2952.985721175093 3963.2734251293587,2889.815288546961 4000.730489168549,2911.3635937240906 4006.013377256808,2911.3980854963884 4010.695933976909,2908.9878353327513 4012.125021422049,2905.8904004027136 4011.5355041524163,2901.781228977721 3984.5030650153058,2888.40077762492 3997.9296382335015,2854.980408441741 4202.245061618392,2956.955521791242 4054.0692800844554,2833.8226811788045 4074.106234654202,2786.021579743363 4022.7298877466237,2725.1041146223433 4003.506317706546,2702.4544899472967 3998.6252706620144,2721.7286026957445 3993.050133883604,2739.4449038025923 3989.084467850509,2753.3991861422546 3983.5288878805004,2768.1197763113305 3977.181591929053,2782.7241817777976 3970.8589869253337,2793.556390499696 3966.944168655784,2799.74429051904 3913.673962884466,2745.58322851127 3890.3168933213456,2722.130194876343 3814.2186281107133,2644.1874807565473 3794.8867374429246,2624.533498666715 3739.067886360339,2569.2474984209985 3663.57588891068,2492.4197343257256 3630.158432731405,2458.5834239302203 3590.704628872685,2418.6055310210213 3581.606124254642,2409.4482416119426 3571.0193620644277,2398.949823000934 3491.7408096973086,2321.6553331087343 3483.2642681102734,2311.614398989361 3462.2578254219843,2291.9503859058022 3434.2657050786074,2263.143017570488 3419.4814070834545,2248.0684852106497 3409.5077925891383,2238.018011244014 3391.922088338877,2220.3735117195174 3345.2141106608324,2171.5846244082786 3292.704531551921,2121.094096353743 3192.7714242266957,2023.142846357543 3141.827891746885,2071.079718799796 3058.9293895099545,2158.5331452917308 3010.7946062784176,2208.1532441386953 2967.3721199682914,2250.8136738054454 2921.564735242049,2294.6796223050915 3018.495884749107,2393.8288873326965 3056.4806295504095,2429.9112451379187 3117.635364782531,2491.551195039414 3146.77963286906,2519.255417846609 3191.5647338745184,2565.7008868418634 3201.4437314447714,2576.749048119411 3312.1188936061226,2687.3079319465905 3387.0789792138385,2764.9055776959285 3442.311938450788,2815.636443852447 3468.294923899346,2841.6569827334024 3479.7537309238687,2853.3814945844933 3490.3377730426146,2864.2126348279417 3498.5575355126057,2873.031318152789 3517.701867389609,2894.458746471908 3543.949338248698,2920.3703371710144 3597.748965914012,2974.53237739997 3617.779919206514,2994.9671927001327 3636.5008061547996,3013.7291804817505 3692.727804252412,3073.566375852097 3730.4328807579586,3111.0925428848714 3753.7777052171296,3136.3201739653014 3768.662176543614,3149.177030561492 3945.1873360743048,2962.594104094431 3935.036194477696,2952.985721175093 "/>
<poly id="9" color="0.7128508393610388,0.8056631533607401,0.4560991223853006" fill="true" layer="0" shape="1575.0827759321546,3279.860197201837 1520.6400046451017,3270.5327781592496 1503.906870808336,3369.954102437012 1489.732883164892,3468.503699072171 1485.1459630373865,3498.0998166967183 1481.2253260782454,3519.7114278608933 1474.9359052410582,3554.0679386244155 1473.4774351344677,3562.047524561174 1471.560078286915,3573.019942956511 1461.1995896868175,3624.881787183229 1452.1612816310953,3676.5300137749873 1433.7126786975423,3783.0417953897268 1580.0167802121723,3800.487245322671 1697.9853330672486,3815.6495840679854 1730.6235974829178,3819.626628034748 1821.8087126022438,3837.729496404063 1869.3470239003655,3852.3412986448966 1886.6448255963624,3747.709409869276 1893.1277788912412,3710.802399633918 1904.865161546506,3650.40630719997 1907.5887995390221,3637.3308484326117 1909.1461744081462,3627.6876061875373 1911.7082769578556,3612.2810796671547 1924.2131150987698,3541.903928290587 1932.6090136158746,3494.912236141041 1940.5918692767154,3443.590715236962 1947.2284124748548,3396.366083736997 1956.8891682535177,3344.2784865428694 1929.629507927224,3338.781096505001 1908.34469170589,3335.2076462632976 1810.8801751637366,3320.7259379890747 1663.7223165318137,3297.7233829502948 1614.4819092761027,3287.207506062463 1575.0827759321546,3279.860197201837 "/>
<poly id="10" color="0.17507593926320608,0.966451681422618,0.7629578034579106" fill="true" layer="0" shape="2776.5215296797687,767.2466985997744 2649.6092978188535,642.5013029519469 2626.2971005786676,638.1364023070782 2632.8575940876035,631.4101022575051 2629.6870053706225,631.3898977125064 2627.3104977938347,631.1528090122156 2624.3245051411213,629.802347658202 2622.8343758758856,628.6832844032906 2620.2078345468035,626.2256240644492 2598.586819390999,605.2286373306997 2595.697427584906,602.5472795055248 2591.152925553848,596.9707139246166 2537.7135263817618,593.4129023351707 2516.5824966795044,592.2798741217703 2507.9535299999407,591.8922103368677 2503.378009790904,591.1974419490434 2498.8884304867825,590.8360235001892 2482.6063284361735,588.9572114674374 2474.5953238228103,588.3516418621875 2467.802394516184,590.0837414315902 2462.786506899749,589.3861193004996 2459.2693129457766,588.4760727710091 2454.3667676926125,583.7849294352345 2448.4075326002203,579.0869974675588 2442.456586102606,573.0576764051802 2435.70810530812,567.80014543375 2427.634999815142,563.0888000936247 2400.6990350290434,588.4372291830368 2359.934613215388,627.7891139113344 2320.5460940180346,589.0385901099071 2317.8594273208873,582.1424193014391 2311.642109654029,576.4443901777267 2307.2658674878767,572.0895436075516 2302.5458234971156,566.4009972154163 2296.427077707718,559.0393460942432 2292.257217525388,549.9146907860413 2289.497206375934,540.6880976301618 2279.0975840447936,541.7318455595523 2268.8803989248117,541.7781159151345 2232.669130544411,543.6571054947563 2180.1034318415914,596.9155355822295 2152.712497235392,624.7027801354416 2117.785291272099,660.4313491717912 2103.868701074389,646.5852031237446 2018.571139318985,555.176591345109 1991.6853181751212,572.7598881199956 1968.1191029241309,594.6913143759593 1876.6242790027754,690.3128795847297 1932.351709377137,750.1342838150449 1979.8793807494221,797.255733506754 2031.26412841829,847.1755438274704 2083.850373539841,901.9852023064159 2118.6890092256945,935.9348775581457 2183.289591895067,998.6989472354762 2224.159210840706,1039.788224235177 2272.5542955038836,1088.4702301737852 2291.806803500396,1107.8981231255457 2318.7612711952534,1134.9196211053059 2345.1018605320714,1161.4935279893689 2368.811000663205,1186.3865486783907 2382.454169607139,1201.4518236326985 2412.207175410469,1231.4871724015102 2417.1959122706903,1236.400803366676 2489.3019678209675,1309.200819298625 2517.573979805922,1336.5641991286539 2538.131470605498,1358.3309897780418 2563.7726016136585,1383.9026282681152 2570.3336285164114,1390.823520806618 2610.837110838038,1433.4658932201564 2647.013104171143,1395.084478048142 2660.0504938724916,1380.7435900368728 2671.919702767511,1370.0568199725822 2748.7432761179516,1296.651916504372 2843.4106877617305,1201.2820766549557 2853.9615271411603,1190.254191044718 2873.110305797076,1170.6269934233278 2881.437529375893,1163.0245214179158 2884.8948054601206,1159.4960777852684 2891.4153122680727,1158.9831300629303 2896.4598804751877,1155.1320775067434 2901.3341959943064,1150.392288134899 2905.585524912225,1146.6470816568471 2909.6734723126283,1140.903679200448 2959.425904887379,1100.8354121283628 2960.3465056520654,1094.627823129762 2964.7144059094135,1086.4453341332264 3010.3645173367113,1040.6922860136256 3024.1061686469475,1026.578420555219 3010.357208462083,1014.3962247287855 3000.468201840995,1004.568775983993 2997.7551859138766,1001.8885316750966 2990.7517170512583,995.2972350534983 2973.158223119215,978.3194321533665 2941.2082031985046,947.7130946773104 2876.545272850897,881.7251258562319 2873.6518066970166,879.7093880018219 2844.985939260456,845.0192860653624 2836.8585648960434,835.0924211726524 2828.5657872045413,823.500140325632 2821.320494836429,813.3570468807593 2804.4351138970815,795.7183499983512 2776.5215296797687,767.2466985997744 "/>
<poly id="11" color="0.1401994660295398,0.2946634357197965,0.0054908499206222094" fill="true" layer="0" shape="2448.9964363699546,3895.838327105157 2458.0498999649426,3842.748817238491 2547.063360831351,3855.963984105736 2596.9353671228746,3863.382906694431 2632.464975968469,3869.490042223595 2663.076481033815,3873.679702578578 2687.2655075239018,3877.1628045230173 2694.213961115107,3878.2058193739504 2740.902194176684,3887.8242438789457 2755.421533730696,3806.3655932140537 2759.9006623398745,3780.5418959246017 2763.5798039903166,3755.9335986780934 2764.395505845896,3752.2773459162563 2776.191136823152,3683.782991119195 2702.563815655536,3673.659283545334 2630.5585826344322,3657.6661059372127 2597.4044757590163,3651.685115914326 2529.8600151175633,3640.2702789711766 2489.206824941095,3636.6830419264734 2466.427838783129,3632.8766473815776 2424.667824472068,3664.898916359525 2417.088031513151,3666.1821808689274 2399.2172652686713,3679.716014116071 2360.7089984863997,3712.7578034424223 2331.8352287281305,3739.869440422859 2317.8463091399753,3752.2075878703035 2259.9436951553216,3803.2124330173247 2167.08469802374,3882.8447111169808 2155.3063205914805,3893.7546946322545 2047.156089897151,3983.277483518701 1992.26539577113,4031.862189788837 1947.2813880626345,4073.186618729029 1958.8049341677688,4074.7015825081617 1983.9640229688957,4077.85583101213 2034.252913790173,4088.824535178952 2127.737882428919,4104.615309254266 2162.2976874292362,4110.825327903032 2199.06596136,4115.828921781853 2234.5032108860323,4122.488492787816 2266.601373042795,4128.128607041668 2301.2475966910133,4134.5615951819345 2327.807267406024,4138.946295310743 2336.865733068087,4140.446223591454 2377.9438983494183,4146.032693303656 2385.3303776372923,4147.4110151031055 2398.0861718552187,4148.93440935621 2400.7286220346577,4148.7293420122005 2403.2864985242486,4147.968913607299 2405.850797836785,4146.209920839407 2408.068582055741,4143.5610859803855 2409.7595846017357,4140.686974183656 2422.6025811695727,4045.347932305187 2439.5154326709453,3946.9279999812134 2448.9964363699546,3895.838327105157 "/>